<?xml version="1.0" encoding="UTF-8"?>

<!-- generated on 2024-03-28 13:42:35.947835 by randomTrips.py v1_19_0+0000-baa66a0f364
<configuration>
    <net-file value="osm.net.xml.gz"/>
    <output-trip-file value="osm.passenger.trips.xml"/>
    <route-file value="osm.passenger.rou.xml"/>
    <prefix value="veh"/>
    <trip-attributes value="departLane=&quot;best&quot;"/>
    <fringe-start-attributes value="departSpeed=&quot;max&quot;"/>
    <vehicle-class value="passenger"/>
    <lanes value="True"/>
    <fringe-factor value="5"/>
    <allow-fringe.min-length value="1000.0"/>
    <via-edge-types value="highway.motorway,highway.motorway_link,highway.trunk_link,highway.primary_link,highway.secondary_link,highway.tertiary_link"/>
    <min-distance value="300.0"/>
    <min-distance.fringe value="10.0"/>
    <remove-loops value="True"/>
    <validate value="True"/>
    <insertion-density value="12.0"/>
</configuration>
-->

<!-- generated on 2024-03-28 13:42:35 by Eclipse SUMO duarouter Version 1.19.0
<configuration xmlns:xsi="http://www.w3.org/2001/XMLSchema-instance" xsi:noNamespaceSchemaLocation="http://sumo.dlr.de/xsd/duarouterConfiguration.xsd">

    <input>
        <net-file value="osm.net.xml.gz"/>
        <route-files value="osm.passenger.trips.xml"/>
    </input>

    <output>
        <output-file value="osm.passenger.rou.xml"/>
        <alternatives-output value="NUL"/>
    </output>

    <processing>
        <remove-loops value="true"/>
    </processing>

    <time>
        <begin value="0.0"/>
        <end value="3600.0"/>
    </time>

    <report>
        <no-warnings value="true"/>
        <ignore-errors value="true"/>
        <no-step-log value="true"/>
    </report>

</configuration>
-->

<routes xmlns:xsi="http://www.w3.org/2001/XMLSchema-instance" xsi:noNamespaceSchemaLocation="http://sumo.dlr.de/xsd/routes_file.xsd">
    <vType id="veh_passenger" vClass="passenger"/>
    <vehicle id="veh0" type="veh_passenger" depart="0.00" departLane="best">
        <route edges="668981623#4 672144715 106665052#0 106665052#1 243778675#0 243778675#1 243778675#2 687277037#0 420729272#0 4854654#1 670078245#0 -281956019#1"/>
    </vehicle>
    <vehicle id="veh1" type="veh_passenger" depart="8.97" departLane="best">
        <route edges="135210330#1 669157820#0 669157819#0 670084143#0 144928675#0 732149239#0 106664688#1 106664688#2 670227219 670227225#0 741171106#0 106664694#0"/>
    </vehicle>
    <vehicle id="veh2" type="veh_passenger" depart="17.94" departLane="best">
        <route edges="670227219 670227225#0 732149243#2 233495973#1 233495973#2 233495973#3 670029696 670238024#0"/>
    </vehicle>
    <vehicle id="veh3" type="veh_passenger" depart="26.90" departLane="best">
        <route edges="671575265 671575266#2 671575271#0 671575271#2 117105371 670083490#0 670083490#1 670083488#0 670083488#1 670811734#0 670811734#1 135256564#0 -50304066#1"/>
    </vehicle>
    <vehicle id="veh4" type="veh_passenger" depart="35.87" departLane="best">
        <route edges="243778675#1 243778675#2 687277037#0 420729272#0 4854654#1 670078245#0 -281956019#1"/>
    </vehicle>
    <vehicle id="veh5" type="veh_passenger" depart="44.84" departLane="best">
        <route edges="106664688#1 106664688#2 670227219 670227225#0 669726359 668981620#1 668981623#4"/>
    </vehicle>
    <vehicle id="veh6" type="veh_passenger" depart="53.81" departLane="best" departSpeed="max">
        <route edges="-41897891#2 670084143#0 144928675#0 687277037#0 420729272#0 106664692#0"/>
    </vehicle>
    <vehicle id="veh8" type="veh_passenger" depart="71.74" departLane="best">
        <route edges="106664688#1 106664688#2 670227219 670227225#0 670227237#0 670227233 670238029 233495979#1 144928692#0 144928692#2 669017290#0 669157818 669017288 500010318#0 500010318#1 500010318#2 671575265 671575266#2 671575271#0 671575271#2 117105371 670083490#0 670083490#1 670083488#0"/>
    </vehicle>
    <vehicle id="veh9" type="veh_passenger" depart="80.71" departLane="best" departSpeed="max">
        <route edges="670325712#1 732059549#1 322292822#0 322292822#2 4854654#1 670254873#1"/>
    </vehicle>
    <vehicle id="veh10" type="veh_passenger" depart="89.68" departLane="best">
        <route edges="233495973#2 233495973#3 670029696 670029695 233495988#0 669006602#0 670227237#0 670227233 670238029 233495979#1 106664684#0"/>
    </vehicle>
    <vehicle id="veh11" type="veh_passenger" depart="98.64" departLane="best">
        <route edges="732059549#1 322292822#0 322292822#2 106664692#0 106664692#2 106664692#3 732149240#0 732149239#0 106664688#1 106664688#2 670227219 670227225#0 732149243#2 233495973#1 233495973#2 233495973#3 670029696 233495995#2"/>
    </vehicle>
    <vehicle id="veh12" type="veh_passenger" depart="107.61" departLane="best" departSpeed="max">
        <route edges="670811719#0 671575271#0 671575271#2 117105371 670083490#0 670083490#1 670083489"/>
    </vehicle>
    <vehicle id="veh13" type="veh_passenger" depart="116.58" departLane="best" departSpeed="max">
        <route edges="50304066#0 -135256564#1 -670811734#1 -670811734#0 -670083488#1 -670083488#0 -670083490#1 -670083490#0 50294138 670811728 670811726#0 671575269#0 135210330#0 135210330#1 669157820#0 669157819#0 670084143#0 144928675#0 732149239#0 106664688#1 106664688#2 670227219 670227225#0 732149243#2 233495973#1 233495973#2 233495973#3 670029696 233495995#2 E2"/>
    </vehicle>
    <vehicle id="veh15" type="veh_passenger" depart="134.51" departLane="best">
        <route edges="670467975 106664692#0 106664692#2 106664692#3 732149240#0 144928692#0 144928692#2 670084143#0"/>
    </vehicle>
    <vehicle id="veh16" type="veh_passenger" depart="143.48" departLane="best" departSpeed="max">
        <route edges="670811719#0 671575271#0 671575271#2 117105371 670083490#0 670083490#1 670083488#0 670083488#1 670811734#0 670811734#1 135256564#0 670075061#0"/>
    </vehicle>
    <vehicle id="veh18" type="veh_passenger" depart="161.42" departLane="best" departSpeed="max">
        <route edges="-670075061#1 -135256564#1 -670811734#1 -670811734#0 -670083488#1 -670083488#0 -670083490#1 -670083490#0 50294138 670811728 670811726#0 671575269#0 135210330#0 135210330#1 669157820#0 669157819#0 670084143#0 144928675#0 732149239#0 106664688#1 106664688#2 670227219 670227225#0 741171106#0 106664694#0"/>
    </vehicle>
    <vehicle id="veh19" type="veh_passenger" depart="170.38" departLane="best" departSpeed="max">
        <route edges="-670083489 -670083490#1 -670083490#0 50294138 670811728 670811726#0 671575269#0 135210330#0 135210330#1 669157820#0 669157819#0 670084143#0 144928675#0"/>
    </vehicle>
    <vehicle id="veh20" type="veh_passenger" depart="179.35" departLane="best">
        <route edges="668981620#1 668981623#4 294952098"/>
    </vehicle>
    <vehicle id="veh21" type="veh_passenger" depart="188.32" departLane="best" departSpeed="max">
        <route edges="233495978#0 670029695 233495988#0 669006602#0 670227237#0 670227233 670238029 233495979#1 687277037#0 420729272#0 106664692#0 106664692#2 106664692#3"/>
    </vehicle>
    <vehicle id="veh22" type="veh_passenger" depart="197.29" departLane="best">
        <route edges="131673728#1 E1"/>
    </vehicle>
    <vehicle id="veh23" type="veh_passenger" depart="206.25" departLane="best">
        <route edges="669006602#0 670227237#0 670227233 670238029 233495979#1 144928692#0 144928692#2 669017290#0 669157818 669017288 500010318#0 500010318#1 500010318#2 671575265 671575266#2 671575271#0 671575271#2 117105371 670083490#0"/>
    </vehicle>
    <vehicle id="veh24" type="veh_passenger" depart="215.22" departLane="best" departSpeed="max">
        <route edges="106654240#3 106654240#5 144928677#0 670467975 670754367#0 732183921#0 732183921#2 670507193#2"/>
    </vehicle>
    <vehicle id="veh25" type="veh_passenger" depart="224.19" departLane="best" departSpeed="max">
        <route edges="-E1 670507192#0 732059549#1 322292822#0 322292822#2 106664692#0 106664692#2 106664692#3 732149240#0 106664684#0 106664684#2 106664684#3 106664684#4 106664684#5 672144716 294952098"/>
    </vehicle>
    <vehicle id="veh26" type="veh_passenger" depart="233.16" departLane="best" departSpeed="max">
        <route edges="640943482#0 669014815 738997314-AddedOnRampEdge 738997314 809612741 810297600#0 670227237#0 670227233 670238029"/>
    </vehicle>
    <vehicle id="veh27" type="veh_passenger" depart="242.12" departLane="best">
        <route edges="322292822#2 106664692#0 106664692#2 106664692#3 732149240#0 144928692#0 144928692#2 669017290#0 669157818 669017288 500010318#0 500010318#1 500010318#2 671575265 671575266#2"/>
    </vehicle>
    <vehicle id="veh28" type="veh_passenger" depart="251.09" departLane="best">
        <route edges="106664688#2 670227219 670227225#0 670227237#0 670227233 670238029 233495979#1 687277037#0 420729272#0 670754367#0 -47120917#5"/>
    </vehicle>
    <vehicle id="veh30" type="veh_passenger" depart="269.03" departLane="best">
        <route edges="106665052#1 243778675#0 243778675#1 243778675#2 687277037#0 420729272#0 670754367#0 732183921#0 732183921#2 131673728#1 E1"/>
    </vehicle>
    <vehicle id="veh31" type="veh_passenger" depart="277.99" departLane="best">
        <route edges="670811728 670811726#0 671575269#0 135210330#0 135210330#1 669157820#0 669157819#0 670084143#0 144928675#0 732149239#0 106664688#1 106664688#2 670227219 670227225#0 732149243#2 233495973#1 233495973#2 233495973#3"/>
    </vehicle>
    <vehicle id="veh33" type="veh_passenger" depart="295.93" departLane="best">
        <route edges="672144715 106665052#0 106665052#1 243778675#0 243778675#1 243778675#2 144928692#0 144928692#2 4854682#0"/>
    </vehicle>
    <vehicle id="veh36" type="veh_passenger" depart="322.83" departLane="best" departSpeed="max">
        <route edges="233495995#0 670029695 233495988#0 669006602#0 741171106#0 106664694#0"/>
    </vehicle>
    <vehicle id="veh38" type="veh_passenger" depart="340.77" departLane="best">
        <route edges="-670083488#0 -670083490#1 -670083490#0 50294138 670811728 670811726#0 671575269#0 135210330#0 135210330#1 669157820#0 669157819#0 670084143#0 144928675#0 687277037#0 420729272#0 670754367#0 -47120917#5"/>
    </vehicle>
    <vehicle id="veh39" type="veh_passenger" depart="349.73" departLane="best" departSpeed="max">
        <route edges="-670083489 -670083490#1 -670083490#0 50294138 670811728 670811726#0 671575269#0 135210330#0 135210330#1 669157820#0 669157819#0 670084143#0 144928675#0 732149239#0 106664688#1 106664688#2 670227219"/>
    </vehicle>
    <vehicle id="veh40" type="veh_passenger" depart="358.70" departLane="best" departSpeed="max">
        <route edges="670325712#1 732059549#1 322292822#0 322292822#2 106664692#0 106664692#2 106664692#3 732149240#0 144928692#0 144928692#2 669017290#0 669157818 669017288 500010318#0 500010318#1 500010318#2 671575265 671575266#2 671575271#0 671575271#2 117105371 670083490#0 670083490#1 670083488#0 670083488#1 670811734#0 670811734#1 135256564#0 470279439#0"/>
    </vehicle>
    <vehicle id="veh41" type="veh_passenger" depart="367.67" departLane="best" departSpeed="max">
        <route edges="-665275598#0 665275599 -135256564#1 -670811734#1 -670811734#0 -670083488#1 -670083488#0 -670083490#1 -670083490#0 50294138 670811728 670811726#0 671575269#0 135210330#0 135210330#1 669157820#0 669157819#0 670084143#0 144928675#0 687277037#0 420729272#0 670754367#0 732183921#0 732183921#2 732059549#1 322292822#0"/>
    </vehicle>
    <vehicle id="veh43" type="veh_passenger" depart="385.60" departLane="best">
        <route edges="738997314 809612741 810297600#0 732149243#2"/>
    </vehicle>
    <vehicle id="veh44" type="veh_passenger" depart="394.57" departLane="best" departSpeed="max">
        <route edges="-41897891#2 670084143#0 144928675#0 687277037#0 420729272#0 670754367#0 732183921#0 732183921#2 670507193#2"/>
    </vehicle>
    <vehicle id="veh46" type="veh_passenger" depart="412.51" departLane="best">
        <route edges="670083490#0 670083490#1 670083488#0 670083488#1 670811734#0 670811734#1 135256564#0 470279439#0"/>
    </vehicle>
    <vehicle id="veh47" type="veh_passenger" depart="421.47" departLane="best">
        <route edges="322292822#2 670754367#0 732183921#0 732183921#2 131673728#1 E1"/>
    </vehicle>
    <vehicle id="veh48" type="veh_passenger" depart="430.44" departLane="best">
        <route edges="670811728 670811726#0 671575269#0 135210330#0"/>
    </vehicle>
    <vehicle id="veh49" type="veh_passenger" depart="439.41" departLane="best" departSpeed="max">
        <route edges="4854667#1 665275599 -135256564#1 -670811734#1 -670811734#0 -670083488#1 -670083488#0 -670083490#1 -670083490#0 50294138 670811728 670811726#0 671575269#0 135210330#0 135210330#1 669157820#0 669157819#0 670084143#0 144928675#0 106664684#0 106664684#2 106664684#3 106664684#4 106664684#5"/>
    </vehicle>
    <vehicle id="veh51" type="veh_passenger" depart="457.34" departLane="best">
        <route edges="144928675#0 732149239#0 106664688#1 106664688#2 670227219 670227225#0"/>
    </vehicle>
    <vehicle id="veh52" type="veh_passenger" depart="466.31" departLane="best" departSpeed="max">
        <route edges="668979846 670227237#0 670227233 670238029 233495979#1 687277037#0 420729272#0 4854654#1 106654240#5"/>
    </vehicle>
    <vehicle id="veh53" type="veh_passenger" depart="475.28" departLane="best">
        <route edges="670238029 233495979#1 144928692#0 144928692#2 669017290#0 669157818"/>
    </vehicle>
    <vehicle id="veh54" type="veh_passenger" depart="484.25" departLane="best" departSpeed="max">
        <route edges="670254874#0 106654240#5 144928677#0 670467975 106664692#0 106664692#2 106664692#3 732149240#0 144928692#0 144928692#2 669017290#0 669157818 669017288"/>
    </vehicle>
    <vehicle id="veh55" type="veh_passenger" depart="493.21" departLane="best">
        <route edges="-135256564#1 -670811734#1 -670811734#0 -670083488#1 -670083488#0 -670083490#1 -670083490#0 50294138 670811728 670811726#0 671575269#0 135210330#0 135210330#1 669157820#0 669157819#0 670084143#0 144928675#0 732149239#0"/>
    </vehicle>
    <vehicle id="veh56" type="veh_passenger" depart="502.18" departLane="best" departSpeed="max">
        <route edges="-41897891#2 670084143#0 144928675#0 687277037#0 420729272#0 4854654#1 E0"/>
    </vehicle>
    <vehicle id="veh57" type="veh_passenger" depart="511.15" departLane="best">
        <route edges="670811728 670811726#0 671575269#0 135210330#0 135210330#1 669157820#0 669157819#0 670084143#0 144928675#0 106664684#0 106664684#2 106664684#3 106664684#4 106664684#5 672144716 672144730"/>
    </vehicle>
    <vehicle id="veh58" type="veh_passenger" depart="520.12" departLane="best" departSpeed="max">
        <route edges="172825275#2 732059549#1 322292822#0 322292822#2 106664692#0 106664692#2 106664692#3 732149240#0 144928692#0 144928692#2 669017290#0 669157818 669017288 500010318#0 500010318#1 500010318#2 671575265 671575266#2 671575271#0 671575271#2 117105371 670083490#0 670083490#1 670083488#0 670083488#1 670811734#0 670811734#1 135256564#0 -665275599 -4854667#1"/>
    </vehicle>
    <vehicle id="veh59" type="veh_passenger" depart="529.08" departLane="best">
        <route edges="670811728 670811726#0 671575269#0 135210330#0 135210330#1 669157820#0 669157819#0 670084143#0 144928675#0 687277037#0 420729272#0 670754367#0 732183921#0 732183921#2 131673728#1 E1"/>
    </vehicle>
    <vehicle id="veh60" type="veh_passenger" depart="538.05" departLane="best" departSpeed="max">
        <route edges="-670075061#1 -665275599 665275598#0"/>
    </vehicle>
    <vehicle id="veh61" type="veh_passenger" depart="547.02" departLane="best" departSpeed="max">
        <route edges="-665275598#0 665275599 -135256564#1 -670811734#1 -670811734#0"/>
    </vehicle>
    <vehicle id="veh62" type="veh_passenger" depart="555.99" departLane="best" departSpeed="max">
        <route edges="670254874#0 106654240#5 144928677#0 670467975 106664692#0 106664692#2 106664692#3 732149240#0 144928692#0 144928692#2 669017290#0 669157818 669017288 500010318#0 500010318#1 500010318#2 671575265 671575266#2 -670811719#1"/>
    </vehicle>
    <vehicle id="veh64" type="veh_passenger" depart="573.92" departLane="best" departSpeed="max">
        <route edges="50304066#0 -135256564#1 -670811734#1 -670811734#0 -670083488#1 -670083488#0 -670083490#1 -670083490#0 50294138 670811728 670811726#0 671575269#0 135210330#0 135210330#1 669157820#0 669157819#0 670084143#0 144928675#0 687277037#0 420729272#0 670754367#0 732183921#0 732183921#2 670507193#2"/>
    </vehicle>
    <vehicle id="veh65" type="veh_passenger" depart="582.89" departLane="best">
        <route edges="106664684#2 106664684#3 106664684#4 106664684#5 672144716 669014815 738997314-AddedOnRampEdge 738997314 809612741 810297600#0 732149243#2 233495973#1 233495973#2"/>
    </vehicle>
    <vehicle id="veh66" type="veh_passenger" depart="591.86" departLane="best" departSpeed="max">
        <route edges="281956019#1 219774027#0 106654240#5 144928677#0 670467975 106664692#0 106664692#2 106664692#3 732149240#0 106664684#0 106664684#2 106664684#3 106664684#4 106664684#5 672144716 669014815"/>
    </vehicle>
    <vehicle id="veh67" type="veh_passenger" depart="600.82" departLane="best">
        <route edges="-670811734#0 -670083488#1 -670083488#0 -670083490#1 -670083490#0 50294138 670811728 670811726#0 671575269#0 135210330#0 135210330#1 669157820#0 669157819#0 670084143#0 144928675#0 732149239#0 106664688#1 106664688#2 670227219 670227225#0 741171106#0 106664694#0"/>
    </vehicle>
    <vehicle id="veh68" type="veh_passenger" depart="609.79" departLane="best">
        <route edges="233495973#2 233495973#3 670029696 670029695 233495988#0 669006602#0 670227237#0 670227233 670238029 233495979#1 144928692#0 144928692#2 669017290#0 669157818 669017288 500010318#0 500010318#1 500010318#2 671575265 671575266#2 671575271#0 671575271#2 117105371 670083490#0 670083490#1 670083488#0"/>
    </vehicle>
    <vehicle id="veh69" type="veh_passenger" depart="618.76" departLane="best">
        <route edges="106664688#2 670227219 670227225#0 741171106#0 106664694#0"/>
    </vehicle>
    <vehicle id="veh70" type="veh_passenger" depart="627.73" departLane="best" departSpeed="max">
        <route edges="-665275598#0 665275599 -135256564#1 -670811734#1 -670811734#0 -670083488#1 -670083488#0 -670083490#1 -670083490#0 50294138 670811728 670811726#0 671575269#0 135210330#0 135210330#1 669157820#0 669157819#0 670084143#0 144928675#0 732149239#0 106664688#1 106664688#2 670227219"/>
    </vehicle>
    <vehicle id="veh71" type="veh_passenger" depart="636.69" departLane="best">
        <route edges="106664688#2 670227219 670227225#0 669726359"/>
    </vehicle>
    <vehicle id="veh72" type="veh_passenger" depart="645.66" departLane="best" departSpeed="max">
        <route edges="670811719#0 671575271#0 671575271#2 117105371 670083490#0 670083490#1 670083488#0 670083488#1 670811734#0 670811734#1 135256564#0 -665275599 -50303903#7"/>
    </vehicle>
    <vehicle id="veh73" type="veh_passenger" depart="654.63" departLane="best">
        <route edges="106664692#2 106664692#3 732149240#0 732149239#0 106664688#1 106664688#2 670227219 670227225#0 732149243#2 233495973#1 233495973#2 233495973#3 670029696 670238024#0"/>
    </vehicle>
    <vehicle id="veh74" type="veh_passenger" depart="663.60" departLane="best">
        <route edges="106665052#0 106665052#1 243778675#0 243778675#1 243778675#2 144928692#0 144928692#2 669017290#0 669157818 669017288 500010318#0 500010318#1 500010318#2 671575265 671575266#2 -670811719#1"/>
    </vehicle>
    <vehicle id="veh75" type="veh_passenger" depart="672.56" departLane="best">
        <route edges="732059549#1 322292822#0 322292822#2 106664692#0 106664692#2 106664692#3 732149240#0 732149239#0 106664688#1 106664688#2 670227219 670227225#0 732149243#2 233495973#1 233495973#2 233495973#3 670029696"/>
    </vehicle>
    <vehicle id="veh77" type="veh_passenger" depart="690.50" departLane="best" departSpeed="max">
        <route edges="670325712#1 732059549#1 322292822#0 322292822#2 106664692#0 106664692#2 106664692#3 732149240#0 732149239#0 106664688#1 106664688#2"/>
    </vehicle>
    <vehicle id="veh78" type="veh_passenger" depart="699.47" departLane="best">
        <route edges="670083488#1 670811734#0 670811734#1 135256564#0 470279439#0"/>
    </vehicle>
    <vehicle id="veh79" type="veh_passenger" depart="708.43" departLane="best">
        <route edges="243778675#2 144928692#0 144928692#2 669017290#0 669157818 669017288 500010318#0 500010318#1"/>
    </vehicle>
    <vehicle id="veh80" type="veh_passenger" depart="717.40" departLane="best">
        <route edges="670084143#0 144928675#0 732149239#0 106664688#1 106664688#2 670227219 670227225#0 732149243#2 233495973#1 233495973#2 233495973#3 670029696 670238024#0"/>
    </vehicle>
    <vehicle id="veh81" type="veh_passenger" depart="726.37" departLane="best">
        <route edges="809612741 810297600#0 670227237#0 670227233 670238029 233495979#1 144928692#0 144928692#2 669017290#0 669157818 669017288 500010318#0 500010318#1 500010318#2 671575265 671575266#2 671575271#0 671575271#2 117105371 670083490#0 670083490#1 -665263711#3"/>
    </vehicle>
    <vehicle id="veh82" type="veh_passenger" depart="735.34" departLane="best" departSpeed="max">
        <route edges="233495995#0 670029695 233495988#0 669006602#0 669726359 668981620#1 668981623#4 672144715 106665052#0 106665052#1 243778675#0"/>
    </vehicle>
    <vehicle id="veh83" type="veh_passenger" depart="744.30" departLane="best">
        <route edges="106665052#0 106665052#1 243778675#0 243778675#1 243778675#2 687277037#0 420729272#0 4854654#1 E0"/>
    </vehicle>
    <vehicle id="veh84" type="veh_passenger" depart="753.27" departLane="best">
        <route edges="322292822#0 322292822#2 106664692#0 106664692#2 106664692#3 732149240#0 732149239#0 106664688#1 106664688#2 670227219 670227225#0 732149243#2"/>
    </vehicle>
    <vehicle id="veh85" type="veh_passenger" depart="762.24" departLane="best" departSpeed="max">
        <route edges="640943482#0 672144715 106665052#0 106665052#1 243778675#0 243778675#1 243778675#2 687277037#0 420729272#0 670754367#0 -47120917#5"/>
    </vehicle>
    <vehicle id="veh87" type="veh_passenger" depart="780.17" departLane="best">
        <route edges="732183921#2 732059549#1 322292822#0 322292822#2 4854654#1 E0"/>
    </vehicle>
    <vehicle id="veh88" type="veh_passenger" depart="789.14" departLane="best" departSpeed="max">
        <route edges="670811719#0 671575269#0 135210330#0 135210330#1 669157820#0 669157819#0 670084143#0 144928675#0 106664684#0 106664684#2 106664684#3"/>
    </vehicle>
    <vehicle id="veh89" type="veh_passenger" depart="798.11" departLane="best" departSpeed="max">
        <route edges="47120917#5 322292822#0 322292822#2 106664692#0 106664692#2 106664692#3 732149240#0 732149239#0 106664688#1 106664688#2 670227219 670227225#0 741171106#0 106664694#0"/>
    </vehicle>
    <vehicle id="veh90" type="veh_passenger" depart="807.08" departLane="best" departSpeed="max">
        <route edges="233495995#0 670029695 233495988#0 669006602#0 670227237#0 670227233 670238029 233495979#1 144928692#0 144928692#2 669017290#0 669157818 669017288 500010318#0 500010318#1 500010318#2 671575265 671575266#2 671575271#0 671575271#2 117105371 670083490#0 670083490#1 670083488#0 670083488#1 670811734#0 670811734#1 135256564#0 -665275599 -4854667#1"/>
    </vehicle>
    <vehicle id="veh91" type="veh_passenger" depart="816.04" departLane="best">
        <route edges="233495979#1 732149239#0 106664688#1 106664688#2 670227219 670227225#0 732149243#2 233495973#1 233495973#2 233495973#3 670029696 233495995#2 E2 E3"/>
    </vehicle>
    <vehicle id="veh93" type="veh_passenger" depart="833.98" departLane="best">
        <route edges="322292822#2 106664692#0 106664692#2 106664692#3 732149240#0 144928692#0 144928692#2 669017290#0 669157818 669017288 500010318#0 500010318#1 500010318#2 671575265 671575266#2 671575271#0 671575271#2 117105371 670083490#0 670083490#1 670083488#0 670083488#1 670811734#0 670811734#1 135256564#0 470279439#0"/>
    </vehicle>
    <vehicle id="veh94" type="veh_passenger" depart="842.95" departLane="best">
        <route edges="732059549#1 322292822#0 322292822#2 106664692#0 106664692#2 106664692#3 732149240#0 732149239#0 106664688#1 106664688#2 670227219 670227225#0 732149243#2 233495973#1 233495973#2 233495973#3 670029696 233495995#2 E2 E3"/>
    </vehicle>
    <vehicle id="veh95" type="veh_passenger" depart="851.91" departLane="best" departSpeed="max">
        <route edges="640943482#0 672144715 106665052#0 106665052#1 243778675#0 243778675#1 243778675#2 687277037#0 420729272#0 670754367#0 732183921#0 732183921#2 670507193#2"/>
    </vehicle>
    <vehicle id="veh96" type="veh_passenger" depart="860.88" departLane="best" departSpeed="max">
        <route edges="-E1 670507192#0 732059549#1 322292822#0 322292822#2 106664692#0 106664692#2 106664692#3 732149240#0 144928692#0 144928692#2"/>
    </vehicle>
    <vehicle id="veh97" type="veh_passenger" depart="869.85" departLane="best">
        <route edges="732183921#2 732059549#1 322292822#0 322292822#2 106664692#0 106664692#2 106664692#3 732149240#0 144928692#0 144928692#2 669017290#0 669157818 669017288 500010318#0 500010318#1 500010318#2 671575265 671575266#2 671575271#0 671575271#2 117105371 670083490#0 670083490#1 670083488#0 670083488#1 670811734#0 670811734#1 135256564#0 670075061#0"/>
    </vehicle>
    <vehicle id="veh98" type="veh_passenger" depart="878.82" departLane="best" departSpeed="max">
        <route edges="50304066#0 -135256564#1 -670811734#1 -670811734#0 -670083488#1 -670083488#0 -670083490#1 -670083490#0 50294138 670811728 670811726#0 671575269#0 135210330#0 135210330#1 669157820#0 669157819#0 670084143#0 144928675#0 687277037#0 420729272#0 670754367#0"/>
    </vehicle>
    <vehicle id="veh99" type="veh_passenger" depart="887.78" departLane="best" departSpeed="max">
        <route edges="-4854682#1 670084143#0 144928675#0 687277037#0 420729272#0 4854654#1 670078245#0"/>
    </vehicle>
    <vehicle id="veh100" type="veh_passenger" depart="896.75" departLane="best" departSpeed="max">
        <route edges="4854667#1 665275599 -135256564#1 -670811734#1 -670811734#0 -670083488#1 -670083488#0 -670083490#1 -670083490#0 50294138 670811728 670811726#0 671575269#0 135210330#0 135210330#1 669157820#0 669157819#0 670084143#0 144928675#0 687277037#0"/>
    </vehicle>
    <vehicle id="veh101" type="veh_passenger" depart="905.72" departLane="best" departSpeed="max">
        <route edges="-670075061#1 -135256564#1 -670811734#1 -670811734#0 -670083488#1 -670083488#0 -670083490#1 -670083490#0 50294138 670811728 670811726#0 671575269#0 135210330#0 135210330#1 669157820#0 669157819#0 670084143#0 144928675#0 732149239#0 106664688#1"/>
    </vehicle>
    <vehicle id="veh102" type="veh_passenger" depart="914.69" departLane="best" departSpeed="max">
        <route edges="668979846 732149243#2 233495973#1 233495973#2 233495973#3 670029696 670238024#0"/>
    </vehicle>
    <vehicle id="veh105" type="veh_passenger" depart="941.59" departLane="best" departSpeed="max">
        <route edges="668979846 670227237#0 670227233 670238029 233495979#1 144928692#0 144928692#2 670084143#0"/>
    </vehicle>
    <vehicle id="veh106" type="veh_passenger" depart="950.56" departLane="best">
        <route edges="243778675#1 243778675#2 687277037#0 420729272#0 4854654#1 670078245#0"/>
    </vehicle>
    <vehicle id="veh107" type="veh_passenger" depart="959.52" departLane="best">
        <route edges="50294138 670811728 670811726#0 671575269#0 135210330#0 135210330#1 669157820#0 669157819#0 670084143#0 144928675#0 687277037#0 420729272#0 670754367#0 732183921#0 732183921#2 131673728#1 E1"/>
    </vehicle>
    <vehicle id="veh111" type="veh_passenger" depart="995.39" departLane="best" departSpeed="max">
        <route edges="-665275598#0 665275599 -135256564#1 -670811734#1 -670811734#0 -670083488#1 -670083488#0 -670083490#1 -670083490#0 50294138 670811728 670811726#0 671575269#0 135210330#0 135210330#1 669157820#0 669157819#0 4854682#0"/>
    </vehicle>
    <vehicle id="veh112" type="veh_passenger" depart="1004.36" departLane="best" departSpeed="max">
        <route edges="-665275598#0 665275599 -135256564#1 -670811734#1 -670811734#0 -670083488#1 -670083488#0 -670083490#1 -670083490#0 50294138 670811728 670811726#0 671575269#0 135210330#0 135210330#1 669157820#0 669157819#0 670084143#0 144928675#0 732149239#0 106664688#1 106664688#2 670227219 670227225#0 741171106#0 106664694#0"/>
    </vehicle>
    <vehicle id="veh113" type="veh_passenger" depart="1013.33" departLane="best">
        <route edges="131673728#1 E1"/>
    </vehicle>
    <vehicle id="veh115" type="veh_passenger" depart="1031.26" departLane="best" departSpeed="max">
        <route edges="233495978#0 670029695 233495988#0 669006602#0 670227237#0 670227233 670238029 233495979#1 106664684#0"/>
    </vehicle>
    <vehicle id="veh116" type="veh_passenger" depart="1040.23" departLane="best">
        <route edges="670507192#0 732059549#1 322292822#0 322292822#2 4854654#1"/>
    </vehicle>
    <vehicle id="veh117" type="veh_passenger" depart="1049.20" departLane="best" departSpeed="max">
        <route edges="668979846 732149243#2 233495973#1 233495973#2 233495973#3 670029696 233495995#2 E2 E3"/>
    </vehicle>
    <vehicle id="veh118" type="veh_passenger" depart="1058.17" departLane="best">