<?xml version="1.0" encoding="UTF-8"?>

<!-- generated on 2024-03-19 13:26:26 by Eclipse SUMO netedit Version 1.19.0
-->

<additional xmlns:xsi="http://www.w3.org/2001/XMLSchema-instance" xsi:noNamespaceSchemaLocation="http://sumo.dlr.de/xsd/additional_file.xsd">
    <!-- Shapes -->
    <poly id="1001493013" type="landuse.forest" color="140,196,107" fill="1" layer="-3.00" shape="2395.921036,1869.508550 2419.282034,1875.562701 2406.871831,1925.917702 2405.916594,1960.960716 2395.745337,1994.219721 2357.519452,1983.638768 2323.783715,1923.997402 2340.955233,1910.451129 2332.192246,1895.098746 2314.152514,1904.268250 2302.411586,1836.786773 2292.966308,1723.316209 2293.911944,1688.706240 2304.912084,1687.850855 2307.158976,1662.448871 2392.937073,1636.336187 2402.155971,1645.115855 2455.353474,1645.222508 2564.887441,1613.030180 2518.628964,1662.872354 2450.773864,1734.146997 2471.452541,1729.369321 2514.570650,1712.366774 2546.728887,1680.451569 2563.067968,1645.439709 2563.536028,1628.795434 2574.128334,1610.861363 2613.239087,1618.391634 2647.091606,1620.203849 2684.896160,1621.158168 2688.787532,1654.023500 2639.068544,1672.321825 2636.854309,1681.078548 2621.042969,1674.039629 2614.417085,1688.039689 2599.458660,1692.828546 2586.680871,1709.447851 2544.880060,1723.376743 2531.670511,1734.742980 2482.742159,1796.406002 2451.505910,1810.367833 2419.343462,1844.904069 2393.850060,1839.600741 2405.915401,1744.561654 2380.850175,1746.265995 2354.981945,1932.820784 2357.580631,1952.969026 2366.366766,1952.553494 2376.500666,1942.058030 2385.873277,1873.741376 2390.318492,1847.477676 2400.662585,1850.807423 2395.921036,1869.508550"/>
    <poly id="1003478818" type="landuse.construction" color="194,194,130" fill="1" layer="-3.00" shape="1497.389102,2633.161333 1571.404976,2726.986601 1489.324078,2796.211865 1456.275055,2744.371116 1438.217951,2720.685451 1471.201040,2654.376982 1497.389102,2633.161333"/>
    <poly id="1013684637" type="building.construction" color="255,230,230" fill="1" layer="-1.00" shape="2007.903371,1064.709531 2020.254722,1060.736036 2017.125822,1042.807764 2009.951478,1044.126317 2005.720803,1053.267958 2003.986984,1059.749444 2003.877430,1065.512313 2007.903371,1064.709531"/>
    <poly id="1016526374" type="building.yes" color="255,230,230" fill="1" layer="-1.00" shape="1446.885876,1520.979535 1443.009883,1525.058664 1446.879693,1528.696949 1448.390684,1527.100758 1450.747490,1524.617807 1446.885876,1520.979535"/>
    <poly id="102291522" type="building.yes" color="255,230,230" fill="1" layer="-1.00" shape="1346.111838,629.136334 1340.447235,602.842245 1353.345989,600.067827 1359.454528,625.629871 1346.111838,629.136334"/>
    <poly id="1025469521" type="building.yes" color="255,230,230" fill="1" layer="-1.00" shape="2079.701576,1937.651681 2079.422652,1929.411804 2076.739590,1922.666299 2071.797898,1922.634435 2072.637043,1941.957418 2079.701576,1937.651681"/>
    <poly id="1025471214" type="building.yes" color="255,230,230" fill="1" layer="-1.00" shape="1640.953049,983.533836 1639.784068,977.557566 1648.803432,975.797951 1649.980602,981.774238 1640.953049,983.533836"/>
    <poly id="1031093957" type="building.yes" color="255,230,230" fill="1" layer="-1.00" shape="2084.739520,2068.669136 2087.827991,2090.172951 2077.210812,2096.692580 2074.659783,2060.154702 2084.739520,2068.669136"/>
    <poly id="1031094524" type="building.yes" color="255,230,230" fill="1" layer="-1.00" shape="2095.465758,2019.009828 2096.569011,2012.216204 2083.517816,2010.314059 2083.659923,2013.079289 2083.793899,2015.811189 2086.545628,2020.946720 2095.465758,2019.009828"/>
    <poly id="1031094525" type="building.yes" color="255,230,230" fill="1" layer="-1.00" shape="2074.556602,2050.049658 2088.917956,2048.267747 2087.311910,2035.594688 2085.459358,2035.824254 2073.532384,2037.377740 2074.556602,2050.049658"/>
    <poly id="1031094526" type="building.yes" color="255,230,230" fill="1" layer="-1.00" shape="2073.532384,2037.377740 2072.975496,2028.793088 2075.442857,2028.475887 2084.648327,2027.294625 2085.459358,2035.824254 2073.532384,2037.377740"/>
    <poly id="1031094527" type="building.yes" color="255,230,230" fill="1" layer="-1.00" shape="2075.442857,2028.475887 2075.487304,2014.118215 2083.659923,2013.079289 2083.793899,2015.811189 2084.648327,2027.294625 2075.442857,2028.475887"/>
    <poly id="1033218905" type="leisure.park" color="207,245,201" fill="1" layer="-2.00" shape="2144.153412,2173.309632 2160.326379,2171.142780 2157.763822,2157.379607 2143.492362,2159.394740 2143.753440,2164.158966 2144.153412,2173.309632"/>
    <poly id="103956181" type="building.yes" color="255,230,230" fill="1" layer="-1.00" shape="1777.034221,1036.837242 1782.569162,1035.570835 1781.709989,1030.527885 1775.781473,1031.871270 1777.034221,1036.837242"/>
    <poly id="103956181#1" type="shop.cosmetics" color="237,199,255" fill="1" layer="-1.00" shape="1777.034221,1036.837242 1782.569162,1035.570835 1781.709989,1030.527885 1775.781473,1031.871270 1777.034221,1036.837242"/>
    <poly id="1040527204" type="building.apartments" color="255,230,230" fill="1" layer="-1.00" shape="2258.878560,1422.502055 2266.436358,1421.895189 2266.325312,1420.029461 2269.734982,1419.936280 2269.625235,1417.415406 2284.142505,1416.222727 2282.058699,1396.597450 2268.237355,1398.135743 2268.235617,1399.012972 2263.071361,1399.435806 2262.630940,1398.346720 2254.573520,1398.774934 2256.121780,1411.581156 2257.441312,1411.583768 2258.878560,1422.502055"/>
    <poly id="1040528500" type="landuse.construction" color="194,194,130" fill="1" layer="-3.00" shape="2257.978701,1463.041754 2288.314815,1461.347423 2285.727036,1435.502784 2255.831669,1438.064128 2257.978701,1463.041754"/>
    <poly id="104163443" type="building.university" color="255,230,230" fill="1" layer="-1.00" shape="2166.912669,1580.833200 2154.230261,1582.707085 2147.185152,1535.189416 2159.867624,1533.326621 2166.912669,1580.833200"/>
    <poly id="104163450" type="building.public" color="255,230,230" fill="1" layer="-1.00" shape="2067.248416,1608.431723 2060.569471,1570.375647 2083.931691,1572.275685 2085.514071,1584.537832 2092.951566,1582.486994 2097.343191,1604.071076 2067.248416,1608.431723"/>
    <poly id="104180127" type="leisure.park" color="207,245,201" fill="1" layer="-2.00" shape="2644.285172,2060.669330 2665.928053,2072.939187 2702.298287,2080.786413 2734.996449,2100.918684 2784.749094,2124.661725 2825.029930,2135.526887 2835.173438,2136.469465 2836.063422,2153.938254 2887.741514,2157.731713 2928.345719,2158.726487 2961.232305,2166.590049 2950.408717,2153.808762 2950.602323,2111.957323 2975.551368,2110.388055 2975.780812,2086.803150 3006.930622,2086.679367 3023.640555,2086.614349 3017.859821,2060.696097 3005.079140,2047.144445 3002.004574,2043.884486 3009.869597,2013.608576 3011.100642,2004.916537 3011.866063,2003.352440 3020.812129,1985.226828 3029.229580,1980.847155 3059.765524,1964.943216 3045.258238,1961.848055 3031.813314,1964.107385 3020.852427,1965.949973 3001.488431,1977.080372 2992.510256,1990.975231 2988.886718,2011.221783 2983.124921,2035.083858 2969.493836,2044.172020 2967.518237,2032.641716 2956.530404,2031.741605 2957.602744,2040.205259 2955.949956,2042.877938 2948.606985,2054.755288 2913.860184,2070.284538 2869.701063,2072.147387 2807.375028,2049.355001 2802.110173,2047.112209 2768.154612,2032.662405 2748.641632,2020.829662 2740.366616,2015.804687 2725.570705,2029.576924 2706.226864,2011.137633 2697.956453,1991.810476 2679.502813,1990.851132 2681.307304,2010.165064 2693.269288,2027.667547 2665.538575,2046.921190 2657.257551,2036.788358 2646.170269,2040.441269 2650.764194,2054.253179 2644.285172,2060.669330"/>
    <poly id="104183521" type="building.yes" color="255,230,230" fill="1" layer="-1.00" shape="2075.479430,1762.307815 2089.272203,1762.412509 2089.439355,1739.804650 2075.638342,1739.699940 2075.479430,1762.307815"/>
    <poly id="104183521#1" type="shop.clothes" color="237,199,255" fill="1" layer="-1.00" shape="2075.479430,1762.307815 2089.272203,1762.412509 2089.439355,1739.804650 2075.638342,1739.699940 2075.479430,1762.307815"/>
    <poly id="104184422" type="building.university" color="255,230,230" fill="1" layer="-1.00" shape="1757.271988,1471.229374 1750.545061,1440.180277 1774.322801,1435.062201 1781.049606,1466.122425 1757.271988,1471.229374"/>
    <poly id="1049885060" type="building.house" color="255,230,230" fill="1" layer="-1.00" shape="2774.175069,1475.720313 2776.650597,1467.552696 2763.874125,1463.162496 2762.019939,1472.086480 2774.175069,1475.720313"/>
    <poly id="1049941959" type="building.house" color="255,230,230" fill="1" layer="-1.00" shape="2761.756978,1468.432653 2763.475882,1461.529359 2755.071027,1459.546662 2753.629785,1466.939113 2761.756978,1468.432653"/>
    <poly id="105216457" type="amenity.school" color="237,199,199" fill="1" layer="-2.00" shape="1604.910421,598.272290 1602.749082,583.832764 1584.457247,586.296751 1578.247819,588.639154 1604.910421,598.272290"/>
    <poly id="105216457#1" type="building.yes" color="255,230,230" fill="1" layer="-1.00" shape="1604.910421,598.272290 1602.749082,583.832764 1584.457247,586.296751 1578.247819,588.639154 1604.910421,598.272290"/>
    <poly id="105216464" type="building.retail" color="255,230,230" fill="1" layer="-1.00" shape="1486.699661,319.646168 1501.259462,310.012739 1490.228667,247.197939 1489.526189,232.705663 1473.758535,243.791510 1479.020459,279.301417 1486.699661,319.646168"/>
    <poly id="105216468" type="building.apartments" color="255,230,230" fill="1" layer="-1.00" shape="1646.498723,1080.595045 1704.968634,1068.868814 1794.391653,1050.939449 1789.885377,1028.622487 1782.768246,1030.041322 1784.140389,1036.861925 1776.219712,1038.445795 1774.815031,1031.491881 1641.959479,1058.133763 1646.498723,1080.595045"/>
    <poly id="105216476" type="amenity.fountain" color="237,199,199" fill="1" layer="-1.00" shape="1884.694546,597.639482 1884.228611,596.972333 1883.918564,596.227755 1883.788955,595.428004 1883.839696,594.617495 1884.070704,593.840646 1884.465520,593.130738 1885.015862,592.532171 1885.680702,592.067075 1886.435388,591.768715 1887.238933,591.637013 1888.050333,591.682992 1888.828582,591.917680 1889.532760,592.307683 1890.138277,592.852955 1890.604212,593.520104 1890.914258,594.264683 1891.043867,595.064434 1890.993124,595.874943 1890.762116,596.651792 1890.367299,597.361700 1889.816957,597.960266 1889.152117,598.425361 1888.397411,598.734825 1887.593866,598.866528 1886.782489,598.809444 1886.004219,598.585861 1885.291866,598.184738 1884.694546,597.639482"/>
    <poly id="105216476#1" type="tourism.attraction" color="207,245,201" fill="1" layer="-2.00" shape="1884.694546,597.639482 1884.228611,596.972333 1883.918564,596.227755 1883.788955,595.428004 1883.839696,594.617495 1884.070704,593.840646 1884.465520,593.130738 1885.015862,592.532171 1885.680702,592.067075 1886.435388,591.768715 1887.238933,591.637013 1888.050333,591.682992 1888.828582,591.917680 1889.532760,592.307683 1890.138277,592.852955 1890.604212,593.520104 1890.914258,594.264683 1891.043867,595.064434 1890.993124,595.874943 1890.762116,596.651792 1890.367299,597.361700 1889.816957,597.960266 1889.152117,598.425361 1888.397411,598.734825 1887.593866,598.866528 1886.782489,598.809444 1886.004219,598.585861 1885.291866,598.184738 1884.694546,597.639482"/>
    <poly id="105216489" type="landuse.grass" color="194,194,130" fill="1" layer="-3.00" shape="1872.113192,631.305396 1864.457383,627.037764 1857.935752,621.195524 1852.867417,614.067996 1848.977869,603.478227 1848.306043,599.046363 1848.241305,590.074049 1850.891725,580.063155 1856.064797,571.089800 1858.988744,568.041765 1863.415087,563.764055 1871.900185,558.816798 1881.348208,556.114453 1891.168652,555.822449 1900.763114,557.950738 1906.676109,560.627147 1913.912211,565.782351 1919.809322,572.434043 1924.056670,580.215181 1926.450045,588.758931 1926.867380,597.609781 1925.284930,606.334622 1923.645166,610.784237 1919.261628,618.359939 1913.314744,624.777789 1906.083803,629.727414 1897.946306,632.976357 1889.279641,634.347681 1880.526557,633.775615 1872.113192,631.305396"/>
    <poly id="105216506" type="landuse.grass" color="194,194,130" fill="1" layer="-3.00" shape="1699.036867,739.618027 1723.278474,741.807214 1714.820270,685.359601 1725.489962,678.040021 1745.606125,673.037022 1759.431782,734.380756 1808.774577,752.152946 1856.764865,718.643703 1863.941312,712.128230 1873.505746,725.493873 1876.577027,722.523858 1870.381249,670.910732 1847.020327,688.066233 1831.601947,671.136055 1812.989579,648.447820 1832.352248,630.385095 1834.148770,629.644560 1841.704077,626.494362 1829.611064,606.539129 1832.971408,589.633885 1822.936448,586.405531 1805.366739,584.128829 1803.551506,581.793473 1810.384309,557.877015 1811.543055,552.038428 1808.604886,549.678712 1810.998365,536.846847 1831.985054,544.049274 1817.489112,524.644667 1829.180857,514.573366 1844.421905,504.508897 1853.644657,516.696806 1880.679955,507.254712 1880.414439,496.150007 1872.861363,485.275570 1861.653166,482.533488 1807.460961,466.428384 1803.045365,465.076325 1804.164643,445.601713 1798.110547,443.769041 1789.314704,448.282730 1775.710781,433.765764 1759.014574,450.345767 1774.122851,471.194963 1776.827224,475.819472 1759.334529,488.877925 1739.333419,506.351113 1735.151430,502.856433 1723.844952,512.984146 1716.877921,521.410082 1721.559295,551.089389 1724.029406,562.520303 1729.025661,568.848097 1731.491668,586.730543 1716.937145,589.412276 1706.649380,585.472941 1692.988840,600.837413 1681.269031,608.599218 1670.624081,615.807870 1672.370451,619.897523 1687.950524,616.673537 1694.737215,647.045286 1688.535389,649.709626 1702.580088,721.169581 1697.594146,726.723315 1699.036867,739.618027"/>
    <poly id="105216519" type="building.school" color="255,230,230" fill="1" layer="-1.00" shape="1657.906765,392.767185 1658.104166,405.404128 1667.943850,408.043349 1673.417063,405.000067 1688.285595,409.825271 1693.489020,436.640662 1690.434192,439.555267 1687.789954,442.082006 1694.776954,449.068697 1718.008516,426.882243 1716.046615,424.046944 1718.230338,422.307738 1722.820989,426.458332 1726.139261,422.955721 1726.328172,422.756205 1728.957031,419.707555 1738.363072,421.901883 1742.089915,419.077413 1746.689392,414.289166 1751.493980,418.007124 1756.099162,414.529188 1752.827945,406.239224 1754.590434,401.878637 1750.225254,395.552031 1754.168140,391.206705 1747.179066,385.308161 1749.815743,382.470513 1742.384417,376.360151 1745.023169,372.434295 1738.247193,366.536167 1740.219887,363.708355 1735.207924,356.947463 1737.183115,352.809361 1731.939973,346.914158 1734.135240,343.431621 1725.835407,337.086436 1723.420467,339.702431 1717.048480,328.241893 1701.752919,345.324384 1717.278976,349.284771 1717.540207,349.851581 1736.887490,391.828924 1733.160635,394.653396 1727.473949,393.554362 1723.534819,395.934269 1724.399039,402.698365 1721.121892,406.123326 1720.448382,406.832714 1717.828222,405.306457 1709.725332,411.820318 1693.323550,407.214242 1689.962298,394.493564 1688.546207,389.116449 1687.240048,386.282403 1674.119103,380.583282 1657.906765,392.767185"/>
    <poly id="105216525" type="leisure.pitch" color="207,245,201" fill="1" layer="-2.00" shape="1794.738914,685.145568 1813.765459,718.383536 1818.640411,715.194867 1837.728703,703.338876 1819.914198,670.702792 1799.613137,682.345531 1794.738914,685.145568"/>
    <poly id="105216528" type="leisure.playground" color="207,245,201" fill="1" layer="-2.00" shape="1765.213770,715.459133 1775.618523,718.110694 1780.958716,715.944473 1783.144104,713.294746 1778.838599,680.140492 1776.208568,666.677183 1771.123463,664.013569 1765.301491,665.201708 1762.149792,667.372116 1759.718496,670.021380 1758.977464,676.060649 1760.178143,682.581103 1765.213770,715.459133"/>
    <poly id="105216538" type="leisure.playground" color="207,245,201" fill="1" layer="-2.00" shape="1745.537160,588.789362 1771.316688,588.572035 1771.136610,566.974033 1745.348805,567.191345 1745.537160,588.789362"/>
    <poly id="105324594" type="building.residential" color="255,230,230" fill="1" layer="-1.00" shape="1940.414851,916.493030 1914.508823,936.164040 1905.973270,924.998951 1931.879315,905.327910 1940.414851,916.493030"/>
    <poly id="105324603" type="amenity.kindergarten" color="237,199,199" fill="1" layer="-2.00" shape="1569.067896,348.549276 1567.691357,339.518982 1564.142922,339.023729 1551.489882,337.234395 1549.093304,325.737061 1536.118980,263.584787 1571.719210,233.270580 1589.829919,240.422442 1587.552451,248.402065 1588.487564,252.423541 1590.268371,260.066575 1603.798939,318.233596 1569.067896,348.549276"/>
    <poly id="105324605" type="building.yes" color="255,230,230" fill="1" layer="-1.00" shape="1632.006742,690.677015 1620.739606,693.231911 1625.617283,714.605593 1636.884387,712.050705 1632.006742,690.677015"/>
    <poly id="105324612" type="building.yes" color="255,230,230" fill="1" layer="-1.00" shape="1662.242043,704.958680 1657.500599,685.284172 1666.718016,683.025266 1670.686315,704.086340 1662.242043,704.958680"/>
    <poly id="105324613" type="building.residential" color="255,230,230" fill="1" layer="-1.00" shape="1602.900699,712.119809 1595.923743,704.244890 1577.278163,720.632890 1576.540345,725.050972 1582.143255,757.463559 1578.109199,758.155532 1594.187698,851.294497 1588.013715,852.348871 1594.629791,890.726338 1605.600246,888.848197 1599.259919,852.059140 1605.630683,850.971834 1589.204147,755.566930 1593.369394,754.853002 1588.237111,725.006362 1602.900699,712.119809"/>
    <poly id="105324619" type="building.yes" color="255,230,230" fill="1" layer="-1.00" shape="1600.480792,573.945756 1601.677934,582.431616 1592.240848,583.757443 1591.043695,575.271584 1600.480792,573.945756"/>
    <poly id="105324631" type="building.yes" color="255,230,230" fill="1" layer="-1.00" shape="1589.957489,538.336993 1603.106026,537.973120 1602.768241,525.835600 1589.611484,526.199459 1589.957489,538.336993"/>
    <poly id="105324634" type="building.yes" color="255,230,230" fill="1" layer="-1.00" shape="1608.657649,580.212833 1618.119773,578.653888 1615.769384,564.502711 1606.299043,566.061643 1608.657649,580.212833"/>
    <poly id="105324637" type="amenity.school" color="237,199,199" fill="1" layer="-2.00" shape="1632.483130,364.758758 1631.820471,359.727308 1631.569906,357.850227 1634.353611,355.268210 1639.510417,350.503154 1644.667229,345.738101 1649.848682,340.950891 1657.041990,334.290884 1658.084853,333.326794 1670.933052,322.957604 1680.223605,316.967847 1687.159508,316.392479 1721.290855,325.906976 1748.912998,335.720151 1763.098644,414.953395 1762.243714,420.526068 1759.645744,424.563038 1739.827849,440.426465 1737.258445,442.387013 1701.201318,471.755655 1684.631097,443.663913 1652.898202,436.163988 1634.134090,371.668683 1632.483130,364.758758"/>
    <poly id="105324639" type="building.yes" color="255,230,230" fill="1" layer="-1.00" shape="1820.619689,396.663741 1829.412318,389.596122 1822.264069,381.243170 1813.092159,389.464908 1820.619689,396.663741"/>
    <poly id="105324645" type="building.yes" color="255,230,230" fill="1" layer="-1.00" shape="1828.900860,814.452754 1815.821539,817.459130 1831.985762,906.901134 1898.495800,981.460502 1905.408282,1009.689611 1916.738117,1008.412283 1911.792990,975.845216 1845.283445,901.074742 1828.900860,814.452754"/>
    <poly id="105324647" type="building.yes" color="255,230,230" fill="1" layer="-1.00" shape="1626.459653,1019.406329 1624.826579,1011.785762 1620.611948,1012.688349 1616.825594,995.125461 1620.597443,994.321973 1618.265568,983.468768 1638.117036,979.231148 1645.876450,1015.256744 1626.459653,1019.406329"/>
    <poly id="105324650" type="building.yes" color="255,230,230" fill="1" layer="-1.00" shape="1614.588404,430.150864 1621.377882,437.603484 1643.835974,416.869972 1636.934679,407.862531 1614.588404,430.150864"/>
    <poly id="105324653" type="amenity.childcare" color="237,199,199" fill="1" layer="-1.00" shape="1607.727772,538.670293 1617.331944,540.054226 1617.946560,535.791376 1618.951398,528.897569 1609.347211,527.513634 1607.727772,538.670293"/>
    <poly id="105324653#1" type="building.yes" color="255,230,230" fill="1" layer="-1.00" shape="1607.727772,538.670293 1617.331944,540.054226 1617.946560,535.791376 1618.951398,528.897569 1609.347211,527.513634 1607.727772,538.670293"/>
    <poly id="105324655" type="building.residential" color="255,230,230" fill="1" layer="-1.00" shape="1645.764632,805.698082 1710.816135,829.839803 1726.278294,909.874965 1744.269508,905.600797 1727.561654,821.265898 1723.393307,815.006303 1651.232343,788.063855 1645.764632,805.698082"/>
    <poly id="105324658" type="building.yes" color="255,230,230" fill="1" layer="-1.00" shape="1612.126066,414.478206 1620.553646,422.633479 1631.187752,412.615371 1624.671090,403.930691 1612.126066,414.478206"/>
    <poly id="105324659" type="building.residential" color="255,230,230" fill="1" layer="-1.00" shape="1684.441113,638.897477 1669.804498,641.712403 1685.819733,724.491233 1696.717129,722.391013 1686.246039,668.282602 1689.985139,667.556819 1684.441113,638.897477"/>
    <poly id="105324663" type="building.yes" color="255,230,230" fill="1" layer="-1.00" shape="1834.186533,400.587324 1842.979172,393.519722 1835.332242,384.477340 1826.110968,392.787799 1834.186533,400.587324"/>
    <poly id="105324665" type="building.yes" color="255,230,230" fill="1" layer="-1.00" shape="1547.586931,521.245711 1537.435330,523.269835 1543.581264,550.420010 1551.648487,549.635651 1547.586931,521.245711"/>
    <poly id="105324669" type="building.yes" color="255,230,230" fill="1" layer="-1.00" shape="1548.383953,328.078713 1541.464155,320.081817 1517.153427,340.856605 1500.576032,355.483112 1501.339756,367.887920 1502.262240,374.296762 1529.365037,503.811264 1539.941488,502.543010 1514.710729,371.477384 1514.700663,359.340487 1548.383953,328.078713"/>
    <poly id="105324672" type="building.apartments" color="255,230,230" fill="1" layer="-1.00" shape="1745.468571,323.665541 1736.122371,311.499755 1788.220199,270.435919 1790.839076,268.364442 1804.417784,257.663771 1852.941992,276.556205 1852.373676,277.965345 1851.459501,280.195531 1847.036672,291.091352 1802.053864,276.425327 1795.830407,281.632389 1755.230385,315.600298 1746.174329,323.244926 1745.468571,323.665541"/>
    <poly id="105324679" type="building.yes" color="255,230,230" fill="1" layer="-1.00" shape="1889.310226,682.295661 1886.665482,659.560275 1906.015279,656.754896 1907.984745,681.087990 1889.310226,682.295661"/>
    <poly id="105324684" type="building.yes" color="255,230,230" fill="1" layer="-1.00" shape="1618.280884,901.530906 1600.609923,905.528400 1603.186887,916.837333 1599.062321,917.762311 1603.500876,937.236339 1607.305646,936.377386 1608.411206,941.232006 1633.814635,935.483572 1631.400314,924.885604 1616.148377,928.343523 1613.351979,916.057002 1621.182953,914.284005 1618.280884,901.530906"/>
    <poly id="105324688" type="building.yes" color="255,230,230" fill="1" layer="-1.00" shape="1646.860319,651.096430 1658.495715,648.897608 1652.709022,618.450058 1635.136961,621.770297 1638.959615,641.898322 1644.904389,640.788038 1646.860319,651.096430"/>
    <poly id="105324693" type="building.yes" color="255,230,230" fill="1" layer="-1.00" shape="1793.149577,388.971470 1801.942188,381.903816 1794.295193,372.861480 1785.082129,381.183113 1793.149577,388.971470"/>
    <poly id="105324708" type="building.yes" color="255,230,230" fill="1" layer="-1.00" shape="1667.331575,562.501501 1666.243115,548.608094 1679.517643,546.634496 1681.942587,560.308356 1667.331575,562.501501"/>
    <poly id="105324710" type="building.residential" color="255,230,230" fill="1" layer="-1.00" shape="1863.814117,531.018552 1858.787789,510.532757 1877.026286,506.126156 1882.011771,526.511948 1863.814117,531.018552"/>
    <poly id="105324715" type="building.apartments" color="255,230,230" fill="1" layer="-1.00" shape="1910.624074,426.196288 1913.974876,418.629694 1917.457458,410.741335 1974.049762,432.015399 1976.479097,443.146510 1980.560169,443.687425 1983.240000,465.123717 1987.871290,465.132702 1992.727231,488.760748 1988.639894,491.462238 1993.773707,511.282086 1989.136672,514.249009 1991.568065,524.291921 1986.389506,527.535400 1987.472842,531.068636 1963.194165,551.908557 1957.034713,545.289633 1939.766060,561.090803 1928.358171,547.232926 1945.815168,531.532030 1955.306412,540.411545 1964.881037,531.624460 1972.016880,525.064604 1974.964820,522.360895 1975.970397,519.497962 1974.977952,515.587362 1979.603660,514.230515 1975.024774,491.435830 1978.567425,490.632092 1974.250327,468.093312 1969.617984,468.628439 1967.205989,448.547384 1910.624074,426.196288"/>
    <poly id="105324724" type="building.yes" color="255,230,230" fill="1" layer="-1.00" shape="1925.661944,831.250879 1894.881196,853.877367 1887.834111,844.358593 1918.614878,821.732074 1925.661944,831.250879"/>
    <poly id="105324726" type="building.yes" color="255,230,230" fill="1" layer="-1.00" shape="1616.828637,654.737389 1613.657081,637.042423 1622.242012,635.515142 1625.413547,653.210112 1616.828637,654.737389"/>
    <poly id="105324733" type="building.yes" color="255,230,230" fill="1" layer="-1.00" shape="1668.296329,870.989003 1665.167156,874.314334 1659.938851,869.418585 1657.334364,864.028118 1657.323208,852.601877 1666.519739,852.597084 1666.517075,849.676675 1684.713429,849.666752 1682.444261,853.315729 1683.728059,854.928273 1678.950552,858.683536 1682.035542,865.696136 1673.791200,869.300473 1671.791665,864.755066 1671.612300,868.574571 1670.387087,870.648734 1668.296329,870.989003"/>
    <poly id="105324737" type="building.commercial" color="255,230,230" fill="1" layer="-1.00" shape="1859.755077,412.417967 1878.908215,422.703975 1899.674298,404.166662 1893.945908,394.950246 1884.520314,402.916004 1877.042574,395.439592 1859.755077,412.417967"/>
    <poly id="105324744" type="building.yes" color="255,230,230" fill="1" layer="-1.00" shape="1785.082129,381.183113 1794.295193,372.861480 1785.411328,363.339307 1777.011259,370.885212 1785.082129,381.183113"/>
    <poly id="105324745" type="building.yes" color="255,230,230" fill="1" layer="-1.00" shape="1763.399586,901.573141 1752.264352,903.883781 1759.241404,937.287419 1754.190401,938.332683 1772.749637,1027.157297 1783.909269,1024.846737 1765.788770,938.121624 1770.823382,937.076336 1763.399586,901.573141"/>
    <poly id="105324750" type="building.apartments" color="255,230,230" fill="1" layer="-1.00" shape="1542.654397,410.949630 1552.980208,421.007199 1595.447721,382.599949 1636.067478,341.902004 1618.451166,255.367109 1617.452190,250.446069 1608.438413,253.094071 1603.131859,254.649758 1620.548781,338.352668 1582.215299,375.113018 1542.654397,410.949630"/>
    <poly id="105324754" type="building.yes" color="255,230,230" fill="1" layer="-1.00" shape="1656.566198,654.956846 1648.907915,656.274858 1653.140682,680.556637 1660.790743,679.238614 1656.566198,654.956846"/>
    <poly id="105324755" type="building.retail" color="255,230,230" fill="1" layer="-1.00" shape="1556.945800,675.056362 1550.394241,676.309936 1556.807409,709.456898 1563.358938,708.203330 1556.945800,675.056362"/>
    <poly id="105324757" type="building.garage" color="255,230,230" fill="1" layer="-1.00" shape="1835.880761,547.188130 1812.188943,540.069344 1810.247663,547.905187 1814.737275,549.101935 1814.140336,552.631925 1833.425904,557.810135 1835.880761,547.188130"/>
    <poly id="105324764" type="building.yes" color="255,230,230" fill="1" layer="-1.00" shape="1671.499148,910.981293 1660.076790,913.446996 1671.412131,965.547167 1682.826211,963.081467 1671.499148,910.981293"/>
    <poly id="105324766" type="building.yes" color="255,230,230" fill="1" layer="-1.00" shape="1689.428702,304.182176 1681.402557,300.435945 1679.902271,291.893979 1686.518801,286.843017 1695.063780,297.963420 1690.570510,302.918465 1689.428702,304.182176"/>
    <poly id="105324770" type="building.yes" color="255,230,230" fill="1" layer="-1.00" shape="1726.320389,922.211811 1705.746890,926.725412 1722.739339,1003.643206 1724.592493,1003.235877 1731.914327,1036.373647 1743.803973,1033.764599 1725.649702,951.614458 1728.650830,950.965022 1724.888268,933.946226 1728.725820,933.098506 1726.320389,922.211811"/>
    <poly id="105324772" type="building.yes" color="255,230,230" fill="1" layer="-1.00" shape="1859.561400,410.829695 1868.404771,402.962721 1860.724200,394.386622 1851.880805,402.264710 1859.561400,410.829695"/>
    <poly id="105324776" type="building.yes" color="255,230,230" fill="1" layer="-1.00" shape="1611.148922,889.036329 1619.709140,887.409061 1612.923697,851.984967 1604.355220,853.623332 1611.148922,889.036329"/>
    <poly id="105324777" type="building.yes" color="255,230,230" fill="1" layer="-1.00" shape="1909.475669,745.273129 1897.490487,746.127248 1901.335256,784.111019 1928.065779,817.364169 1936.793833,809.563681 1913.326222,780.225473 1909.475669,745.273129"/>
    <poly id="105324783" type="building.yes" color="255,230,230" fill="1" layer="-1.00" shape="1606.517216,454.698111 1597.388483,444.542779 1556.621484,481.154335 1577.717720,587.205716 1591.108598,584.332728 1572.228515,485.525406 1606.517216,454.698111"/>
    <poly id="105324784" type="building.residential" color="255,230,230" fill="1" layer="-1.00" shape="1622.198846,784.289075 1632.922216,783.132283 1622.330310,727.680129 1612.104653,730.003817 1622.198846,784.289075"/>
    <poly id="105324785" type="building.residential" color="255,230,230" fill="1" layer="-1.00" shape="1780.875855,918.018522 1799.178186,913.933862 1770.892913,784.760166 1690.795207,759.001412 1685.969720,775.048925 1756.933456,797.969731 1780.875855,918.018522"/>
    <poly id="105324793" type="building.yes" color="255,230,230" fill="1" layer="-1.00" shape="1644.189446,559.392944 1661.044292,562.645053 1663.759315,548.681119 1646.896240,545.428988 1644.189446,559.392944"/>