<?xml version="1.0" encoding="UTF-8"?>

<!-- generated on 2024-04-22 13:24:58 by Eclipse SUMO netedit Version 1.19.0
<configuration xmlns:xsi="http://www.w3.org/2001/XMLSchema-instance" xsi:noNamespaceSchemaLocation="http://sumo.dlr.de/xsd/neteditConfiguration.xsd">

    <input>
        <sumocfg-file value="osm.sumocfg"/>
        <additional-files value="osm.poly.xml.gz"/>
        <route-files value="osm.passenger.trips.xml"/>
        <sumo-net-file value="osm.net.xml.gz"/>
    </input>

    <output>
        <output-file value="osm.net.xml.gz"/>
        <output.street-names value="true"/>
    </output>

    <processing>
        <geometry.min-radius.fix.railways value="false"/>
        <geometry.max-grade.fix value="false"/>
        <offset.disable-normalization value="true"/>
        <lefthand value="0"/>
    </processing>

    <junctions>
        <no-turnarounds value="true"/>
        <junctions.corner-detail value="5"/>
        <junctions.limit-turn-speed value="5.50"/>
        <rectangular-lane-cut value="0"/>
    </junctions>

    <pedestrian>
        <walkingareas value="0"/>
    </pedestrian>

    <netedit>
        <ignore.routeelements value="false"/>
    </netedit>

</configuration>
-->

<net version="1.16" junctionCornerDetail="5" limitTurnSpeed="5.50" xmlns:xsi="http://www.w3.org/2001/XMLSchema-instance" xsi:noNamespaceSchemaLocation="http://sumo.dlr.de/xsd/net_file.xsd">

    <location netOffset="-511463.58,-4721476.06" convBoundary="28.23,264.39,3598.54,2962.81" origBoundary="21.139884,42.645607,21.183799,42.676723" projParameter="+proj=utm +zone=34 +ellps=WGS84 +datum=WGS84 +units=m +no_defs"/>

    <type id="highway.primary" priority="12" numLanes="2" speed="11.11" disallow="tram rail_urban rail rail_electric rail_fast ship" oneway="0"/>
    <type id="highway.residential" priority="3" numLanes="1" speed="11.11" disallow="tram rail_urban rail rail_electric rail_fast ship" oneway="0"/>
    <type id="highway.tertiary" priority="10" numLanes="1" speed="11.11" disallow="tram rail_urban rail rail_electric rail_fast ship" oneway="0"/>
    <type id="highway.unclassified" priority="4" numLanes="1" speed="11.11" disallow="tram rail_urban rail rail_electric rail_fast ship" oneway="0"/>

    <edge id=":1212551078_0" function="internal">
        <lane id=":1212551078_0_0" index="0" disallow="tram rail_urban rail rail_electric rail_fast ship" speed="11.11" length="0.29" shape="1962.87,820.77 1962.85,820.43"/>
        <lane id=":1212551078_0_1" index="1" disallow="tram rail_urban rail rail_electric rail_fast ship" speed="11.11" length="0.29" shape="1966.06,820.53 1966.04,820.25"/>
        <lane id=":1212551078_0_2" index="2" disallow="tram rail_urban rail rail_electric rail_fast ship" speed="11.11" length="0.29" shape="1969.25,820.30 1969.24,820.06"/>
    </edge>
    <edge id=":1212551634_0" function="internal">
        <lane id=":1212551634_0_0" index="0" disallow="tram rail_urban rail rail_electric rail_fast ship" speed="11.11" length="8.08" shape="1975.81,976.88 1975.28,974.53 1974.56,972.99 1973.88,971.44 1973.46,969.08"/>
        <lane id=":1212551634_0_1" index="1" disallow="tram rail_urban rail rail_electric rail_fast ship" speed="11.11" length="8.08" shape="1978.99,976.50 1978.46,974.19 1977.75,972.68 1977.07,971.17 1976.65,968.85"/>
        <lane id=":1212551634_0_2" index="2" disallow="tram rail_urban rail rail_electric rail_fast ship" speed="11.11" length="8.08" shape="1978.99,976.50 1978.96,974.17 1979.34,972.57 1979.76,970.97 1979.84,968.63"/>
    </edge>
    <edge id=":1214932086_0" function="internal">
        <lane id=":1214932086_0_0" index="0" disallow="tram rail_urban rail rail_electric rail_fast ship" speed="11.11" length="0.29" shape="2023.03,1020.48 2023.34,1020.43"/>
        <lane id=":1214932086_0_1" index="1" disallow="tram rail_urban rail rail_electric rail_fast ship" speed="11.11" length="0.29" shape="2023.62,1023.63 2023.89,1023.58"/>
    </edge>
    <edge id=":1215094069_0" function="internal">
        <lane id=":1215094069_0_0" index="0" disallow="tram rail_urban rail rail_electric rail_fast ship" speed="11.11" length="7.06" shape="1498.34,620.96 1496.59,619.82 1495.40,619.01 1494.25,618.15 1492.60,616.85"/>
    </edge>
    <edge id=":1215094069_1" function="internal">
        <lane id=":1215094069_1_0" index="0" disallow="tram rail_urban rail rail_electric rail_fast ship" speed="11.11" length="6.41" shape="1494.58,614.34 1496.23,615.05 1497.62,614.78 1499.09,614.37 1500.99,614.65"/>
        <lane id=":1215094069_1_1" index="1" disallow="tram rail_urban rail rail_electric rail_fast ship" speed="11.11" length="6.41" shape="1494.58,614.34 1496.01,615.48 1497.01,616.24 1498.09,616.87 1499.75,617.60"/>
    </edge>
    <edge id=":1226949658_0" function="internal">
        <lane id=":1226949658_0_0" index="0" disallow="tram rail_urban rail rail_electric rail_fast ship" speed="11.11" length="6.78" shape="2240.82,969.97 2242.42,969.19 2243.56,968.73 2244.63,968.16 2245.99,967.04"/>
        <lane id=":1226949658_0_1" index="1" disallow="tram rail_urban rail rail_electric rail_fast ship" speed="11.11" length="6.78" shape="2242.37,972.77 2244.17,971.87 2245.46,971.32 2246.65,970.65 2248.18,969.37"/>
        <lane id=":1226949658_0_2" index="2" disallow="tram rail_urban rail rail_electric rail_fast ship" speed="11.11" length="6.78" shape="2243.92,975.57 2245.93,974.55 2247.35,973.92 2248.67,973.14 2250.37,971.70"/>
    </edge>
    <edge id=":1226949763_0" function="internal">
        <lane id=":1226949763_0_0" index="0" disallow="tram rail_urban rail rail_electric rail_fast ship" speed="11.11" length="0.55" shape="2261.38,908.80 2260.78,908.68"/>
        <lane id=":1226949763_0_1" index="1" disallow="tram rail_urban rail rail_electric rail_fast ship" speed="11.11" length="0.55" shape="2264.18,907.26 2263.70,907.38"/>
    </edge>
    <edge id=":1226950981_0" function="internal">
        <lane id=":1226950981_0_0" index="0" disallow="tram rail_urban rail rail_electric rail_fast ship" speed="11.11" length="8.20" shape="1992.26,972.04 1992.71,974.38 1993.40,975.91 1994.10,977.44 1994.58,979.79"/>
        <lane id=":1226950981_0_1" index="1" disallow="tram rail_urban rail rail_electric rail_fast ship" speed="11.11" length="8.20" shape="1989.07,972.31 1989.52,974.67 1990.21,976.21 1990.91,977.75 1991.40,980.11"/>
        <lane id=":1226950981_0_2" index="2" disallow="tram rail_urban rail rail_electric rail_fast ship" speed="11.11" length="8.20" shape="1985.88,972.58 1986.34,974.95 1987.03,976.51 1987.73,978.05 1988.22,980.42"/>
        <lane id=":1226950981_0_3" index="3" disallow="tram rail_urban rail rail_electric rail_fast ship" speed="11.11" length="8.20" shape="1985.88,972.58 1985.84,975.01 1985.43,976.66 1985.04,978.32 1985.03,980.74"/>
    </edge>
    <edge id=":1226958643_0" function="internal">
        <lane id=":1226958643_0_0" index="0" disallow="tram rail_urban rail rail_electric rail_fast ship" speed="11.11" length="0.91" shape="2263.66,974.06 2263.40,974.37 2263.21,974.57 2262.99,974.74 2262.66,974.97"/>
        <lane id=":1226958643_0_1" index="1" disallow="tram rail_urban rail rail_electric rail_fast ship" speed="11.11" length="0.91" shape="2261.21,972.02 2261.12,972.12 2261.05,972.18 2260.98,972.24 2260.87,972.32"/>
    </edge>
    <edge id=":1287822157_0" function="internal">
        <lane id=":1287822157_0_0" index="0" disallow="tram rail_urban rail rail_electric rail_fast ship" speed="11.11" length="26.70" shape="1820.94,2895.76 1811.89,2890.05 1804.89,2886.60 1799.93,2885.39 1797.02,2886.42"/>
    </edge>
    <edge id=":1287822157_1" function="internal">
        <lane id=":1287822157_1_0" index="0" disallow="tram rail_urban rail rail_electric rail_fast ship" speed="11.11" length="50.80" shape="1822.71,2893.09 1781.78,2863.00"/>
    </edge>
    <edge id=":1287822157_2" function="internal">
        <lane id=":1287822157_2_0" index="0" disallow="tram rail_urban rail rail_electric rail_fast ship" speed="11.11" length="48.75" shape="1822.71,2893.09 1810.36,2883.72 1801.19,2874.49 1795.20,2865.41 1792.40,2856.47"/>
    </edge>
    <edge id=":1287822157_3" function="internal">
        <lane id=":1287822157_3_0" index="0" disallow="tram rail_urban rail rail_electric rail_fast ship" speed="6.60" length="18.54" shape="1822.71,2893.09 1820.02,2889.12 1820.60,2884.61 1823.65,2881.32 1828.36,2881.02"/>
    </edge>
    <edge id=":1287822157_4" function="internal">
        <lane id=":1287822157_4_0" index="0" disallow="tram rail_urban rail rail_electric rail_fast ship" speed="6.24" length="16.44" shape="1827.71,2884.18 1821.98,2882.57 1819.80,2882.68 1821.15,2884.51 1826.04,2888.04"/>
    </edge>
    <edge id=":1287822157_5" function="internal">
        <lane id=":1287822157_5_0" index="0" disallow="tram rail_urban rail rail_electric rail_fast ship" speed="11.11" length="32.44" shape="1827.71,2884.18 1817.41,2881.57 1808.87,2881.07 1802.07,2882.69 1797.02,2886.42"/>
    </edge>
    <edge id=":1287822157_6" function="internal">
        <lane id=":1287822157_6_0" index="0" disallow="tram rail_urban rail rail_electric rail_fast ship" speed="11.11" length="50.59" shape="1827.71,2884.18 1819.13,2880.56 1804.58,2873.95 1790.11,2867.15 1781.78,2863.00"/>
    </edge>
    <edge id=":1287822157_7" function="internal">
        <lane id=":1287822157_7_0" index="0" disallow="tram rail_urban rail rail_electric rail_fast ship" speed="11.11" length="46.95" shape="1827.71,2884.18 1813.13,2878.38 1802.38,2871.84 1795.47,2864.53 1792.40,2856.47"/>
    </edge>
    <edge id=":1287822157_8" function="internal">
        <lane id=":1287822157_8_0" index="0" disallow="tram rail_urban rail rail_electric rail_fast ship" speed="11.11" length="42.99" shape="1798.48,2854.34 1799.61,2862.01 1804.96,2869.01 1814.55,2875.35 1828.36,2881.02"/>
    </edge>
    <edge id=":1287822157_9" function="internal">
        <lane id=":1287822157_9_0" index="0" disallow="tram rail_urban rail rail_electric rail_fast ship" speed="11.11" length="47.50" shape="1795.11,2855.52 1796.25,2863.25 1801.49,2871.69 1810.83,2880.85 1824.27,2890.71"/>
    </edge>
    <edge id=":1287822157_10" function="internal">
        <lane id=":1287822157_10_0" index="0" disallow="tram rail_urban rail rail_electric rail_fast ship" speed="11.11" length="31.18" shape="1795.11,2855.52 1795.35,2864.01 1796.84,2873.28 1797.94,2881.40 1797.02,2886.42"/>
    </edge>
    <edge id=":1287822157_11" function="internal">
        <lane id=":1287822157_11_0" index="0" disallow="tram rail_urban rail rail_electric rail_fast ship" speed="8.23" length="19.75" shape="1795.11,2855.52 1793.62,2861.33 1790.90,2864.52 1786.95,2865.07 1781.78,2863.00"/>
    </edge>
    <edge id=":1287822157_12" function="internal">
        <lane id=":1287822157_12_0" index="0" disallow="tram rail_urban rail rail_electric rail_fast ship" speed="5.40" length="8.98" shape="1784.27,2860.79 1786.83,2861.95 1788.53,2861.80 1789.35,2860.33 1789.31,2857.55"/>
    </edge>
    <edge id=":1287822157_13" function="internal">
        <lane id=":1287822157_13_0" index="0" disallow="tram rail_urban rail rail_electric rail_fast ship" speed="11.11" length="48.52" shape="1784.27,2860.79 1792.29,2864.82 1806.14,2871.28 1820.07,2877.55 1828.36,2881.02"/>
    </edge>
    <edge id=":1287822157_14" function="internal">
        <lane id=":1287822157_14_0" index="0" disallow="tram rail_urban rail rail_electric rail_fast ship" speed="11.11" length="49.96" shape="1784.27,2860.79 1791.15,2865.79 1802.74,2874.66 1815.10,2884.08 1824.27,2890.71"/>
    </edge>
    <edge id=":1287822157_15" function="internal">
        <lane id=":1287822157_15_0" index="0" disallow="tram rail_urban rail rail_electric rail_fast ship" speed="10.85" length="30.52" shape="1784.27,2860.79 1790.13,2865.98 1795.27,2873.30 1798.10,2880.77 1797.02,2886.42"/>
    </edge>
    <edge id=":1287822157_16" function="internal">
        <lane id=":1287822157_16_0" index="0" disallow="tram rail_urban rail rail_electric rail_fast ship" speed="10.25" length="27.58" shape="1792.93,2884.02 1795.40,2879.13 1794.37,2874.00 1789.83,2868.62 1781.78,2863.00"/>
    </edge>
    <edge id=":1287822157_17" function="internal">
        <lane id=":1287822157_17_0" index="0" disallow="tram rail_urban rail rail_electric rail_fast ship" speed="11.11" length="26.72" shape="1792.93,2884.02 1792.66,2879.70 1791.42,2870.87 1790.03,2862.00 1789.31,2857.55"/>
    </edge>
    <edge id=":1287822157_18" function="internal">
        <lane id=":1287822157_18_0" index="0" disallow="tram rail_urban rail rail_electric rail_fast ship" speed="11.11" length="37.56" shape="1792.93,2884.02 1798.96,2879.53 1806.88,2877.53 1816.68,2878.03 1828.36,2881.02"/>
    </edge>
    <edge id=":1287822157_19" function="internal">
        <lane id=":1287822157_19_0" index="0" disallow="tram rail_urban rail rail_electric rail_fast ship" speed="11.11" length="34.37" shape="1792.93,2884.02 1797.82,2881.13 1804.68,2881.28 1813.50,2884.48 1824.27,2890.71"/>
    </edge>
    <edge id=":1319191411_0" function="internal">
        <lane id=":1319191411_0_0" index="0" disallow="tram rail_urban rail rail_electric rail_fast ship" speed="11.11" length="0.38" shape="1986.59,2463.06 1986.53,2463.50"/>
        <lane id=":1319191411_0_1" index="1" disallow="tram rail_urban rail rail_electric rail_fast ship" speed="11.11" length="0.38" shape="1983.45,2462.47 1983.43,2462.56 1983.43,2462.63 1983.42,2462.69 1983.41,2462.79"/>
    </edge>
    <edge id=":1319191411_2" function="internal">
        <lane id=":1319191411_2_0" index="0" disallow="tram rail_urban rail rail_electric rail_fast ship" speed="11.11" length="0.17" shape="1977.17,2461.36 1977.26,2461.29"/>
        <lane id=":1319191411_2_1" index="1" disallow="tram rail_urban rail rail_electric rail_fast ship" speed="11.11" length="0.17" shape="1980.29,2462.07 1980.31,2462.01 1980.35,2461.98 1980.38,2461.95 1980.41,2461.89"/>
    </edge>
    <edge id=":1319191430_0" function="internal">
        <lane id=":1319191430_0_0" index="0" disallow="tram rail_urban rail rail_electric rail_fast ship" speed="11.11" length="0.29" shape="1998.30,2404.41 1998.36,2404.29 1998.41,2404.22 1998.45,2404.14 1998.53,2404.04"/>
        <lane id=":1319191430_0_1" index="1" disallow="tram rail_urban rail rail_electric rail_fast ship" speed="11.11" length="0.29" shape="2001.08,2405.99 2001.10,2405.95 2001.12,2405.92 2001.13,2405.90 2001.16,2405.86"/>
    </edge>
    <edge id=":1394139130_0" function="internal">
        <lane id=":1394139130_0_0" index="0" disallow="tram rail_urban rail rail_electric rail_fast ship" speed="11.11" length="0.30" shape="1212.45,1025.91 1212.20,1025.81"/>
        <lane id=":1394139130_0_1" index="1" disallow="tram rail_urban rail rail_electric rail_fast ship" speed="11.11" length="0.30" shape="1213.63,1022.93 1213.35,1022.83"/>
        <lane id=":1394139130_0_2" index="2" disallow="tram rail_urban rail rail_electric rail_fast ship" speed="11.11" length="0.30" shape="1214.80,1019.96 1214.50,1019.84"/>
    </edge>
    <edge id=":1394174709_0" function="internal">
        <lane id=":1394174709_0_0" index="0" disallow="tram rail_urban rail rail_electric rail_fast ship" speed="12.50" length="7.58" shape="805.53,877.81 803.53,876.93 802.24,876.13 800.94,875.38 798.90,874.61"/>
        <lane id=":1394174709_0_1" index="1" disallow="tram rail_urban rail rail_electric rail_fast ship" speed="12.50" length="7.58" shape="806.63,874.80 804.58,873.90 803.25,873.10 801.91,872.33 799.81,871.55"/>
        <lane id=":1394174709_0_2" index="2" disallow="tram rail_urban rail rail_electric rail_fast ship" speed="12.50" length="7.58" shape="807.73,871.80 805.62,870.88 804.25,870.06 802.88,869.28 800.73,868.48"/>
    </edge>
    <edge id=":1394174709_3" function="internal">
        <lane id=":1394174709_3_0" index="0" disallow="tram rail_urban rail rail_electric rail_fast ship" speed="12.50" length="8.72" shape="803.47,859.28 806.09,859.54 807.99,858.98 809.86,858.47 812.44,858.88"/>
        <lane id=":1394174709_3_1" index="1" disallow="tram rail_urban rail rail_electric rail_fast ship" speed="12.50" length="8.72" shape="802.56,862.35 805.13,862.59 806.98,862.02 808.82,861.50 811.34,861.89"/>
        <lane id=":1394174709_3_2" index="2" disallow="tram rail_urban rail rail_electric rail_fast ship" speed="12.50" length="8.72" shape="801.64,865.41 804.16,865.64 805.98,865.06 807.77,864.52 810.25,864.89"/>
        <lane id=":1394174709_3_3" index="3" disallow="tram rail_urban rail rail_electric rail_fast ship" speed="12.50" length="8.72" shape="801.64,865.41 809.15,867.90"/>
    </edge>
    <edge id=":1584062683_0" function="internal">
        <lane id=":1584062683_0_0" index="0" disallow="tram rail_urban rail rail_electric rail_fast ship" speed="11.11" length="0.29" shape="2077.20,2191.80 2077.20,2191.84 2077.20,2191.87 2077.21,2191.90 2077.21,2191.95"/>
        <lane id=":1584062683_0_1" index="1" disallow="tram rail_urban rail rail_electric rail_fast ship" speed="11.11" length="0.29" shape="2074.00,2191.97 2074.01,2192.10 2074.02,2192.19 2074.03,2192.27 2074.05,2192.40"/>
    </edge>
    <edge id=":1584062688_0" function="internal">
        <lane id=":1584062688_0_0" index="0" disallow="tram rail_urban rail rail_electric rail_fast ship" speed="11.11" length="7.90" shape="2062.71,1806.87 2062.86,1814.66"/>
        <lane id=":1584062688_0_1" index="1" disallow="tram rail_urban rail rail_electric rail_fast ship" speed="11.11" length="7.90" shape="2059.51,1806.83 2059.67,1814.83"/>
    </edge>
    <edge id=":1584062705_0" function="internal">
        <lane id=":1584062705_0_0" index="0" disallow="tram rail_urban rail rail_electric rail_fast ship" speed="11.11" length="0.30" shape="1998.43,1063.65 1998.45,1063.96"/>
        <lane id=":1584062705_0_1" index="1" disallow="tram rail_urban rail rail_electric rail_fast ship" speed="11.11" length="0.30" shape="1995.23,1063.87 1995.25,1064.16"/>
    </edge>
    <edge id=":1584062726_0" function="internal">
        <lane id=":1584062726_0_0" index="0" disallow="tram rail_urban rail rail_electric rail_fast ship" speed="11.11" length="0.10" shape="2063.08,1977.91 2063.08,1977.82"/>
        <lane id=":1584062726_0_1" index="1" disallow="tram rail_urban rail rail_electric rail_fast ship" speed="11.11" length="0.10" shape="2059.88,1977.91 2059.88,1978.00"/>
    </edge>
    <edge id=":1584062732_0" function="internal">
        <lane id=":1584062732_0_0" index="0" disallow="tram rail_urban rail rail_electric rail_fast ship" speed="11.11" length="0.28" shape="2062.71,1920.93 2062.71,1921.19"/>
        <lane id=":1584062732_0_1" index="1" disallow="tram rail_urban rail rail_electric rail_fast ship" speed="11.11" length="0.28" shape="2059.51,1920.91 2059.51,1921.22"/>
    </edge>
    <edge id=":1584062733_0" function="internal">
        <lane id=":1584062733_0_0" index="0" disallow="tram rail_urban rail rail_electric rail_fast ship" speed="11.11" length="7.99" shape="2052.49,1627.97 2053.16,1630.28 2053.96,1631.77 2054.71,1633.27 2055.24,1635.59"/>
        <lane id=":1584062733_0_1" index="1" disallow="tram rail_urban rail rail_electric rail_fast ship" speed="11.11" length="7.99" shape="2049.34,1628.54 2050.00,1630.79 2050.79,1632.24 2051.54,1633.69 2052.06,1635.96"/>
        <lane id=":1584062733_0_2" index="2" disallow="tram rail_urban rail rail_electric rail_fast ship" speed="11.11" length="7.99" shape="2049.34,1628.54 2049.50,1630.83 2049.20,1632.42 2048.86,1634.02 2048.88,1636.33"/>
    </edge>
    <edge id=":1584062737_0" function="internal">
        <lane id=":1584062737_0_0" index="0" disallow="tram rail_urban rail rail_electric rail_fast ship" speed="11.11" length="8.21" shape="1983.99,1078.21 1983.58,1075.85 1982.92,1074.31 1982.26,1072.76 1981.82,1070.41"/>
        <lane id=":1584062737_0_1" index="1" disallow="tram rail_urban rail rail_electric rail_fast ship" speed="11.11" length="8.21" shape="1987.18,1078.00 1986.78,1075.63 1986.12,1074.07 1985.45,1072.52 1985.01,1070.15"/>
        <lane id=":1584062737_0_2" index="2" disallow="tram rail_urban rail rail_electric rail_fast ship" speed="11.11" length="8.21" shape="1990.38,1077.79 1989.97,1075.41 1989.31,1073.84 1988.64,1072.28 1988.20,1069.90"/>
        <lane id=":1584062737_0_3" index="3" disallow="tram rail_urban rail rail_electric rail_fast ship" speed="11.11" length="8.21" shape="1990.38,1077.79 1990.47,1075.36 1990.90,1073.72 1991.33,1072.07 1991.39,1069.65"/>
    </edge>
    <edge id=":1584062745_0" function="internal">
        <lane id=":1584062745_0_0" index="0" disallow="tram rail_urban rail rail_electric rail_fast ship" speed="16.66" length="8.10" shape="2049.47,1027.17 2047.18,1027.95 2045.72,1028.83 2044.26,1029.68 2041.95,1030.36"/>
        <lane id=":1584062745_0_1" index="1" disallow="tram rail_urban rail rail_electric rail_fast ship" speed="16.66" length="8.10" shape="2048.75,1024.06 2046.50,1024.83 2045.08,1025.70 2043.64,1026.54 2041.38,1027.21"/>
        <lane id=":1584062745_0_2" index="2" disallow="tram rail_urban rail rail_electric rail_fast ship" speed="16.66" length="8.10" shape="2048.75,1024.06 2046.42,1024.33 2044.79,1024.12 2043.15,1023.88 2040.80,1024.06"/>
    </edge>
    <edge id=":1584062749_0" function="internal">
        <lane id=":1584062749_0_0" index="0" disallow="tram rail_urban rail rail_electric rail_fast ship" speed="11.11" length="8.20" shape="1908.84,1053.32 1906.55,1053.99 1905.09,1054.82 1903.63,1055.67 1901.34,1056.38"/>
        <lane id=":1584062749_0_1" index="1" disallow="tram rail_urban rail rail_electric rail_fast ship" speed="11.11" length="8.20" shape="1908.27,1050.17 1905.96,1050.85 1904.49,1051.68 1903.02,1052.53 1900.71,1053.24"/>
        <lane id=":1584062749_0_2" index="2" disallow="tram rail_urban rail rail_electric rail_fast ship" speed="11.11" length="8.20" shape="1908.27,1050.17 1905.86,1050.36 1904.18,1050.11 1902.49,1049.88 1900.09,1050.10"/>
    </edge>
    <edge id=":1584062752_0" function="internal">
        <lane id=":1584062752_0_0" index="0" disallow="tram rail_urban rail rail_electric rail_fast ship" speed="11.11" length="7.99" shape="1478.37,1107.55 1480.60,1107.71 1482.16,1107.42 1483.72,1107.07 1485.98,1107.08"/>
        <lane id=":1584062752_0_1" index="1" disallow="tram rail_urban rail rail_electric rail_fast ship" speed="11.11" length="7.99" shape="1477.78,1110.69 1480.08,1110.87 1481.68,1110.58 1483.28,1110.24 1485.61,1110.26"/>
        <lane id=":1584062752_0_2" index="2" disallow="tram rail_urban rail rail_electric rail_fast ship" speed="11.11" length="7.99" shape="1477.18,1113.84 1479.55,1114.03 1481.20,1113.75 1482.85,1113.41 1485.24,1113.44"/>
        <lane id=":1584062752_0_3" index="3" disallow="tram rail_urban rail rail_electric rail_fast ship" speed="11.11" length="7.99" shape="1477.18,1113.84 1479.51,1114.53 1481.01,1115.34 1482.53,1116.10 1484.88,1116.62"/>
    </edge>
    <edge id=":2418749431_0" function="internal">
        <lane id=":2418749431_0_0" index="0" disallow="tram rail_urban rail rail_electric rail_fast ship" speed="11.11" length="0.27" shape="2510.98,299.80 2511.29,299.84"/>
        <lane id=":2418749431_0_1" index="1" disallow="tram rail_urban rail rail_electric rail_fast ship" speed="11.11" length="0.27" shape="2510.63,302.99 2510.86,303.01"/>
    </edge>
    <edge id=":2418749441_0" function="internal">
        <lane id=":2418749441_0_0" index="0" disallow="tram rail_urban rail rail_electric rail_fast ship" speed="11.11" length="0.41" shape="2589.18,318.04 2589.35,318.10 2589.47,318.14 2589.59,318.19 2589.75,318.27"/>
        <lane id=":2418749441_0_1" index="1" disallow="tram rail_urban rail rail_electric rail_fast ship" speed="11.11" length="0.41" shape="2588.15,321.07 2588.21,321.09 2588.25,321.10 2588.28,321.12 2588.34,321.15"/>
    </edge>
    <edge id=":2418749456_0" function="internal">
        <lane id=":2418749456_0_0" index="0" disallow="tram rail_urban rail rail_electric rail_fast ship" speed="11.11" length="8.20" shape="2034.32,547.97 2032.64,549.70 2031.22,550.61 2029.79,551.52 2028.09,553.24"/>
        <lane id=":2418749456_0_1" index="1" disallow="tram rail_urban rail rail_electric rail_fast ship" speed="11.11" length="8.20" shape="2031.80,545.99 2030.13,547.71 2028.71,548.62 2027.28,549.53 2025.59,551.24"/>
    </edge>
    <edge id=":2418749462_0" function="internal">
        <lane id=":2418749462_0_0" index="0" disallow="tram rail_urban rail rail_electric rail_fast ship" speed="11.11" length="8.13" shape="2016.52,546.20 2017.79,544.13 2018.36,542.51 2018.94,540.90 2020.28,538.88"/>
        <lane id=":2418749462_0_1" index="1" disallow="tram rail_urban rail rail_electric rail_fast ship" speed="11.11" length="8.13" shape="2019.07,548.14 2020.32,546.09 2020.87,544.49 2021.44,542.91 2022.75,540.91"/>
        <lane id=":2418749462_0_2" index="2" disallow="tram rail_urban rail rail_electric rail_fast ship" speed="11.11" length="8.13" shape="2021.61,550.08 2022.84,548.06 2023.37,546.48 2023.93,544.92 2025.22,542.94"/>
        <lane id=":2418749462_0_3" index="3" disallow="tram rail_urban rail rail_electric rail_fast ship" speed="11.11" length="8.13" shape="2021.61,550.08 2023.22,548.38 2024.61,547.50 2026.02,546.63 2027.70,544.98"/>
    </edge>
    <edge id=":2418749516_0" function="internal">
        <lane id=":2418749516_0_0" index="0" disallow="tram rail_urban rail rail_electric rail_fast ship" speed="11.11" length="8.14" shape="2063.27,551.96 2061.82,550.02 2060.53,548.90 2059.27,547.77 2057.89,545.79"/>
        <lane id=":2418749516_0_1" index="1" disallow="tram rail_urban rail rail_electric rail_fast ship" speed="11.11" length="8.14" shape="2066.02,550.32 2064.59,548.41 2063.31,547.31 2062.06,546.20 2060.70,544.25"/>
        <lane id=":2418749516_0_2" index="2" disallow="tram rail_urban rail rail_electric rail_fast ship" speed="11.11" length="8.14" shape="2066.02,550.32 2065.03,548.17 2064.71,546.54 2064.42,544.90 2063.50,542.71"/>
    </edge>
    <edge id=":2418749547_0" function="internal">
        <lane id=":2418749547_0_0" index="0" disallow="tram rail_urban rail rail_electric rail_fast ship" speed="11.11" length="0.28" shape="2028.98,491.79 2028.83,491.52"/>
        <lane id=":2418749547_0_1" index="1" disallow="tram rail_urban rail rail_electric rail_fast ship" speed="11.11" length="0.28" shape="2031.76,490.19 2031.63,489.98"/>
    </edge>
    <edge id=":2418749590_0" function="internal">
        <lane id=":2418749590_0_0" index="0" disallow="tram rail_urban rail rail_electric rail_fast ship" speed="11.11" length="0.28" shape="2071.25,542.63 2071.40,542.90"/>
        <lane id=":2418749590_0_1" index="1" disallow="tram rail_urban rail rail_electric rail_fast ship" speed="11.11" length="0.28" shape="2068.45,544.18 2068.58,544.41"/>
    </edge>
    <edge id=":29675458_0" function="internal">
        <lane id=":29675458_0_0" index="0" disallow="tram rail_urban rail rail_electric rail_fast ship" speed="11.11" length="0.30" shape="2049.71,1809.54 2049.71,1809.26"/>
        <lane id=":29675458_0_1" index="1" disallow="tram rail_urban rail rail_electric rail_fast ship" speed="11.11" length="0.30" shape="2052.91,1809.55 2052.91,1809.24"/>
    </edge>
    <edge id=":29675910_0" function="internal">
        <lane id=":29675910_0_0" index="0" disallow="tram rail_urban rail rail_electric rail_fast ship" speed="11.11" length="8.38" shape="1918.39,1038.21 1920.71,1037.22 1922.02,1035.83 1923.33,1034.46 1925.66,1033.52"/>
        <lane id=":29675910_0_1" index="1" disallow="tram rail_urban rail rail_electric rail_fast ship" speed="11.11" length="8.38" shape="1918.39,1038.21 1926.25,1036.67"/>
        <lane id=":29675910_0_2" index="2" disallow="tram rail_urban rail rail_electric rail_fast ship" speed="11.11" length="8.38" shape="1919.04,1041.35 1926.84,1039.81"/>
        <lane id=":29675910_0_3" index="3" disallow="tram rail_urban rail rail_electric rail_fast ship" speed="11.11" length="8.38" shape="1919.04,1041.35 1921.52,1041.34 1923.22,1042.12 1924.93,1042.91 1927.42,1042.96"/>
    </edge>
    <edge id=":31207760_0" function="internal">
        <lane id=":31207760_0_0" index="0" disallow="tram rail_urban rail rail_electric rail_fast ship" speed="6.71" length="9.33" shape="1512.63,2625.01 1510.81,2623.13 1508.85,2622.22 1506.76,2622.30 1504.53,2623.35"/>
    </edge>
    <edge id=":31207760_1" function="internal">
        <lane id=":31207760_1_0" index="0" disallow="tram rail_urban rail rail_electric rail_fast ship" speed="11.11" length="14.93" shape="1512.63,2625.01 1510.45,2621.97 1508.36,2618.89 1506.35,2615.75 1504.43,2612.54"/>
    </edge>
    <edge id=":31207760_2" function="internal">
        <lane id=":31207760_2_0" index="0" disallow="tram rail_urban rail rail_electric rail_fast ship" speed="7.48" length="13.53" shape="1512.63,2625.01 1511.45,2621.99 1511.51,2618.42 1512.71,2615.11 1514.94,2612.83"/>
    </edge>
    <edge id=":31207760_3" function="internal">
        <lane id=":31207760_3_0" index="0" disallow="tram rail_urban rail rail_electric rail_fast ship" speed="6.29" length="9.08" shape="1516.65,2615.50 1514.70,2617.05 1513.81,2618.84 1513.98,2620.85 1515.20,2623.11"/>
    </edge>
    <edge id=":31207760_4" function="internal">
        <lane id=":31207760_4_0" index="0" disallow="tram rail_urban rail rail_electric rail_fast ship" speed="11.11" length="14.44" shape="1516.65,2615.50 1504.53,2623.35"/>
    </edge>
    <edge id=":31207760_5" function="internal">
        <lane id=":31207760_5_0" index="0" disallow="tram rail_urban rail rail_electric rail_fast ship" speed="8.04" length="14.34" shape="1516.65,2615.50 1512.94,2617.02 1509.67,2617.04 1506.83,2615.54 1504.43,2612.54"/>
    </edge>
    <edge id=":31207760_6" function="internal">
        <lane id=":31207760_6_0" index="0" disallow="tram rail_urban rail rail_electric rail_fast ship" speed="6.48" length="8.95" shape="1507.35,2610.84 1508.80,2612.74 1510.55,2613.71 1512.60,2613.74 1514.94,2612.83"/>
    </edge>