<?xml version="1.0" encoding="UTF-8"?>

<!-- generated on 2024-03-28 13:42:36.348730 by randomTrips.py v1_19_0+0000-baa66a0f364
<configuration>
    <net-file value="osm.net.xml.gz"/>
    <output-trip-file value="osm.passenger.trips.xml"/>
    <route-file value="osm.passenger.rou.xml"/>
    <prefix value="veh"/>
    <trip-attributes value="departLane=&quot;best&quot;"/>
    <fringe-start-attributes value="departSpeed=&quot;max&quot;"/>
    <vehicle-class value="passenger"/>
    <lanes value="True"/>
    <fringe-factor value="5"/>
    <allow-fringe.min-length value="1000.0"/>
    <via-edge-types value="highway.motorway,highway.motorway_link,highway.trunk_link,highway.primary_link,highway.secondary_link,highway.tertiary_link"/>
    <min-distance value="300.0"/>
    <min-distance.fringe value="10.0"/>
    <remove-loops value="True"/>
    <validate value="True"/>
    <insertion-density value="12.0"/>
</configuration>
-->

<!-- generated on 2024-03-28 13:42:36 by Eclipse SUMO duarouter Version 1.19.0
<configuration xmlns:xsi="http://www.w3.org/2001/XMLSchema-instance" xsi:noNamespaceSchemaLocation="http://sumo.dlr.de/xsd/duarouterConfiguration.xsd">

    <input>
        <net-file value="osm.net.xml.gz"/>
        <route-files value="osm.passenger.trips.xml"/>
    </input>

    <output>
        <output-file value="osm.passenger.trips.xml.tmp"/>
        <alternatives-output value="NUL"/>
        <write-trips value="true"/>
    </output>

    <processing>
        <remove-loops value="true"/>
    </processing>

    <time>
        <begin value="0.0"/>
        <end value="3600.0"/>
    </time>

    <report>
        <no-warnings value="true"/>
        <ignore-errors value="true"/>
        <no-step-log value="true"/>
    </report>

</configuration>
-->

<routes xmlns:xsi="http://www.w3.org/2001/XMLSchema-instance" xsi:noNamespaceSchemaLocation="http://sumo.dlr.de/xsd/routes_file.xsd">
   <!-- <vType id="veh_passenger" vClass="passenger"  minGap="2.5"/> -->
<vType id="veh_passenger" accel="2.0" decel="4.5" minGap="2.0" tau="1.0" lcSpeedGain="1.0"  maxSpeed="11.11"/>
<vType id="veh_bus" vClass="bus" color="1,0,0,1"/>
<vType id="long_vehicle" vClass="truck" length="10.0" width="2.5" color="0,0,1,1"  maxSpeed="11.11"/>
<trip id="veh1" type="veh_passenger" depart="0" departLane="best" departSpeed="4.47" from="4854667#1" to="E3">
   <stop edge="665275599" endPos="5" duration="0"/>
   <stop edge="-135256564#1" endPos="5" duration="0"/>
   <stop edge="-670083490#1" endPos="5" duration="0"/>
   <stop edge="669157819#0" endPos="5" duration="0"/>
   <stop edge="670084143#0" endPos="5" duration="0"/>
   <stop edge="420729272#0" endPos="5" duration="0"/>
   <stop edge="670754367#0" endPos="5" duration="0"/>
   <stop edge="732183921#0" endPos="5" duration="0"/>
   <stop edge="E1" endPos="5" duration="0"/>
   <stop edge="E3" endPos="5" duration="0"/>
</trip>
<trip id="veh2" type="veh_passenger" depart="0" departLane="best" departSpeed="4.47" from="4854667#1" to="E3">
   <stop edge="665275599" endPos="5" duration="0"/>
   <stop edge="-135256564#1" endPos="5" duration="0"/>
   <stop edge="-670083490#1" endPos="5" duration="0"/>
   <stop edge="669157819#0" endPos="5" duration="0"/>
   <stop edge="670084143#0" endPos="5" duration="0"/>
   <stop edge="420729272#0" endPos="5" duration="0"/>
   <stop edge="670754367#0" endPos="5" duration="0"/>
   <stop edge="732183921#0" endPos="5" duration="0"/>
   <stop edge="E1" endPos="5" duration="0"/>
   <stop edge="E3" endPos="5" duration="0"/>
</trip>
<trip id="veh3" type="veh_passenger" depart="0" departLane="best" departSpeed="4.47" from="4854667#1" to="E3">
   <stop edge="665275599" endPos="5" duration="0"/>
   <stop edge="-135256564#1" endPos="5" duration="0"/>
   <stop edge="-670083490#1" endPos="5" duration="0"/>
   <stop edge="669157819#0" endPos="5" duration="0"/>
   <stop edge="670084143#0" endPos="5" duration="0"/>
   <stop edge="420729272#0" endPos="5" duration="0"/>
   <stop edge="670754367#0" endPos="5" duration="0"/>
   <stop edge="732183921#0" endPos="5" duration="0"/>
   <stop edge="E1" endPos="5" duration="0"/>
   <stop edge="E3" endPos="5" duration="0"/>
</trip>
<trip id="veh4" type="veh_passenger" depart="0" departLane="best" departSpeed="4.47" from="4854667#1" to="E3">
   <stop edge="665275599" endPos="5" duration="0"/>
   <stop edge="-135256564#1" endPos="5" duration="0"/>
   <stop edge="-670083490#1" endPos="5" duration="0"/>
   <stop edge="669157819#0" endPos="5" duration="0"/>
   <stop edge="670084143#0" endPos="5" duration="0"/>
   <stop edge="420729272#0" endPos="5" duration="0"/>
   <stop edge="670754367#0" endPos="5" duration="0"/>
   <stop edge="732183921#0" endPos="5" duration="0"/>
   <stop edge="E1" endPos="5" duration="0"/>
   <stop edge="E3" endPos="5" duration="0"/>
</trip>
<trip id="veh5" type="veh_passenger" depart="0" departLane="best" departSpeed="4.47" from="4854667#1" to="E3">
   <stop edge="665275599" endPos="5" duration="0"/>
   <stop edge="-135256564#1" endPos="5" duration="0"/>
   <stop edge="-670083490#1" endPos="5" duration="0"/>
   <stop edge="669157819#0" endPos="5" duration="0"/>
   <stop edge="670084143#0" endPos="5" duration="0"/>
   <stop edge="420729272#0" endPos="5" duration="0"/>
   <stop edge="670754367#0" endPos="5" duration="0"/>
   <stop edge="732183921#0" endPos="5" duration="0"/>
   <stop edge="E1" endPos="5" duration="0"/>
   <stop edge="E3" endPos="5" duration="0"/>
</trip>
<trip id="veh6" type="veh_passenger" depart="0" departLane="best" departSpeed="4.47" from="4854667#1" to="E3">
   <stop edge="665275599" endPos="5" duration="0"/>
   <stop edge="-135256564#1" endPos="5" duration="0"/>
   <stop edge="-670083490#1" endPos="5" duration="0"/>
   <stop edge="669157819#0" endPos="5" duration="0"/>
   <stop edge="670084143#0" endPos="5" duration="0"/>
   <stop edge="420729272#0" endPos="5" duration="0"/>
   <stop edge="670754367#0" endPos="5" duration="0"/>
   <stop edge="732183921#0" endPos="5" duration="0"/>
   <stop edge="E1" endPos="5" duration="0"/>
   <stop edge="E3" endPos="5" duration="0"/>
</trip>
<trip id="veh7" type="veh_passenger" depart="0" departLane="best" departSpeed="4.47" from="4854667#1" to="E3">
   <stop edge="665275599" endPos="5" duration="0"/>
   <stop edge="-135256564#1" endPos="5" duration="0"/>
   <stop edge="-670083490#1" endPos="5" duration="0"/>
   <stop edge="669157819#0" endPos="5" duration="0"/>
   <stop edge="670084143#0" endPos="5" duration="0"/>
   <stop edge="420729272#0" endPos="5" duration="0"/>
   <stop edge="670754367#0" endPos="5" duration="0"/>
   <stop edge="732183921#0" endPos="5" duration="0"/>
   <stop edge="E1" endPos="5" duration="0"/>
   <stop edge="E3" endPos="5" duration="0"/>
</trip>
<trip id="veh8" type="veh_passenger" depart="0" departLane="best" departSpeed="4.47" from="4854667#1" to="E3">
   <stop edge="665275599" endPos="5" duration="0"/>
   <stop edge="-135256564#1" endPos="5" duration="0"/>
   <stop edge="-670083490#1" endPos="5" duration="0"/>
   <stop edge="669157819#0" endPos="5" duration="0"/>
   <stop edge="670084143#0" endPos="5" duration="0"/>
   <stop edge="420729272#0" endPos="5" duration="0"/>
   <stop edge="670754367#0" endPos="5" duration="0"/>
   <stop edge="732183921#0" endPos="5" duration="0"/>
   <stop edge="E1" endPos="5" duration="0"/>
   <stop edge="E3" endPos="5" duration="0"/>
</trip>
<trip id="veh9" type="veh_passenger" depart="0" departLane="best" departSpeed="4.47" from="4854667#1" to="E3">
   <stop edge="665275599" endPos="5" duration="0"/>
   <stop edge="-135256564#1" endPos="5" duration="0"/>
   <stop edge="-670083490#1" endPos="5" duration="0"/>
   <stop edge="669157819#0" endPos="5" duration="0"/>
   <stop edge="670084143#0" endPos="5" duration="0"/>
   <stop edge="420729272#0" endPos="5" duration="0"/>
   <stop edge="670754367#0" endPos="5" duration="0"/>
   <stop edge="732183921#0" endPos="5" duration="0"/>
   <stop edge="E1" endPos="5" duration="0"/>
   <stop edge="E3" endPos="5" duration="0"/>
</trip>
<trip id="veh10" type="veh_passenger" depart="0" departLane="best" departSpeed="4.47" from="4854667#1" to="E3">
   <stop edge="665275599" endPos="5" duration="0"/>
   <stop edge="-135256564#1" endPos="5" duration="0"/>
   <stop edge="-670083490#1" endPos="5" duration="0"/>
   <stop edge="669157819#0" endPos="5" duration="0"/>
   <stop edge="670084143#0" endPos="5" duration="0"/>
   <stop edge="420729272#0" endPos="5" duration="0"/>
   <stop edge="670754367#0" endPos="5" duration="0"/>
   <stop edge="732183921#0" endPos="5" duration="0"/>
   <stop edge="E1" endPos="5" duration="0"/>
   <stop edge="E3" endPos="5" duration="0"/>
</trip>
<trip id="veh11" type="veh_passenger" depart="0" departLane="best" departSpeed="4.47" from="4854667#1" to="E3">
   <stop edge="665275599" endPos="5" duration="0"/>
   <stop edge="-135256564#1" endPos="5" duration="0"/>
   <stop edge="-670083490#1" endPos="5" duration="0"/>
   <stop edge="669157819#0" endPos="5" duration="0"/>
   <stop edge="670084143#0" endPos="5" duration="0"/>
   <stop edge="420729272#0" endPos="5" duration="0"/>
   <stop edge="670754367#0" endPos="5" duration="0"/>
   <stop edge="732183921#0" endPos="5" duration="0"/>
   <stop edge="E1" endPos="5" duration="0"/>
   <stop edge="E3" endPos="5" duration="0"/>
</trip>
<trip id="veh12" type="veh_passenger" depart="0" departLane="best" departSpeed="4.47" from="4854667#1" to="E3">
   <stop edge="665275599" endPos="5" duration="0"/>
   <stop edge="-135256564#1" endPos="5" duration="0"/>
   <stop edge="-670083490#1" endPos="5" duration="0"/>
   <stop edge="669157819#0" endPos="5" duration="0"/>
   <stop edge="670084143#0" endPos="5" duration="0"/>
   <stop edge="420729272#0" endPos="5" duration="0"/>
   <stop edge="670754367#0" endPos="5" duration="0"/>
   <stop edge="732183921#0" endPos="5" duration="0"/>
   <stop edge="E1" endPos="5" duration="0"/>
   <stop edge="E3" endPos="5" duration="0"/>
</trip>
<trip id="veh13" type="veh_passenger" depart="0" departLane="best" departSpeed="4.47" from="4854667#1" to="E3">
   <stop edge="665275599" endPos="5" duration="0"/>
   <stop edge="-135256564#1" endPos="5" duration="0"/>
   <stop edge="-670083490#1" endPos="5" duration="0"/>
   <stop edge="669157819#0" endPos="5" duration="0"/>
   <stop edge="670084143#0" endPos="5" duration="0"/>
   <stop edge="420729272#0" endPos="5" duration="0"/>
   <stop edge="670754367#0" endPos="5" duration="0"/>
   <stop edge="732183921#0" endPos="5" duration="0"/>
   <stop edge="E1" endPos="5" duration="0"/>
   <stop edge="E3" endPos="5" duration="0"/>
</trip>
<trip id="veh14" type="veh_passenger" depart="0" departLane="best" departSpeed="4.47" from="-E3" to="665275598#0">
   <stop edge="-E1" endPos="5" duration="0"/>
   <stop edge="732059549#1" endPos="5" duration="0"/>
   <stop edge="322292822#2" endPos="5" duration="0"/>
   <stop edge="106664692#0" endPos="5" duration="0"/>
   <stop edge="144928692#2" endPos="5" duration="0"/>
   <stop edge="669017290#0" endPos="5" duration="0"/>
   <stop edge="671575271#0" endPos="5" duration="0"/>
   <stop edge="670083488#0" endPos="5" duration="0"/>
   <stop edge="-665275599" endPos="5" duration="0"/>
   <stop edge="665275598#0" endPos="5" duration="0"/>
</trip>
<trip id="veh15" type="veh_passenger" depart="0" departLane="best" departSpeed="4.47" from="-E3" to="-4854667#1">
   <stop edge="-E1" endPos="5" duration="0"/>
   <stop edge="732059549#1" endPos="5" duration="0"/>
   <stop edge="322292822#2" endPos="5" duration="0"/>
   <stop edge="106664692#0" endPos="5" duration="0"/>
   <stop edge="144928692#2" endPos="5" duration="0"/>
   <stop edge="669017290#0" endPos="5" duration="0"/>
   <stop edge="671575271#0" endPos="5" duration="0"/>
   <stop edge="670083488#0" endPos="5" duration="0"/>
   <stop edge="-665275599" endPos="5" duration="0"/>
   <stop edge="-4854667#1" endPos="5" duration="0"/>
</trip>
<trip id="veh16" type="veh_passenger" depart="0" departLane="best" departSpeed="4.47" from="-E3" to="-4854667#1">
   <stop edge="-E1" endPos="5" duration="0"/>
   <stop edge="732059549#1" endPos="5" duration="0"/>
   <stop edge="322292822#2" endPos="5" duration="0"/>
   <stop edge="106664692#0" endPos="5" duration="0"/>
   <stop edge="144928692#2" endPos="5" duration="0"/>
   <stop edge="669017290#0" endPos="5" duration="0"/>
   <stop edge="671575271#0" endPos="5" duration="0"/>
   <stop edge="670083488#0" endPos="5" duration="0"/>
   <stop edge="-665275599" endPos="5" duration="0"/>
   <stop edge="-4854667#1" endPos="5" duration="0"/>
</trip>
<trip id="veh17" type="veh_passenger" depart="0" departLane="best" departSpeed="4.47" from="-E3" to="-4854667#1">
   <stop edge="-E1" endPos="5" duration="0"/>
   <stop edge="732059549#1" endPos="5" duration="0"/>
   <stop edge="322292822#2" endPos="5" duration="0"/>
   <stop edge="106664692#0" endPos="5" duration="0"/>
   <stop edge="144928692#2" endPos="5" duration="0"/>
   <stop edge="669017290#0" endPos="5" duration="0"/>
   <stop edge="671575271#0" endPos="5" duration="0"/>
   <stop edge="670083488#0" endPos="5" duration="0"/>
   <stop edge="-665275599" endPos="5" duration="0"/>
   <stop edge="-4854667#1" endPos="5" duration="0"/>
</trip>
<trip id="veh18" type="veh_passenger" depart="0" departLane="best" departSpeed="4.47" from="-E3" to="-4854667#1">
   <stop edge="-E1" endPos="5" duration="0"/>
   <stop edge="732059549#1" endPos="5" duration="0"/>
   <stop edge="322292822#2" endPos="5" duration="0"/>
   <stop edge="106664692#0" endPos="5" duration="0"/>
   <stop edge="144928692#2" endPos="5" duration="0"/>
   <stop edge="669017290#0" endPos="5" duration="0"/>
   <stop edge="671575271#0" endPos="5" duration="0"/>
   <stop edge="670083488#0" endPos="5" duration="0"/>
   <stop edge="-665275599" endPos="5" duration="0"/>
   <stop edge="-4854667#1" endPos="5" duration="0"/>
</trip>
<trip id="veh19" type="veh_passenger" depart="0" departLane="best" departSpeed="4.47" from="-E3" to="-4854667#1">
   <stop edge="-E1" endPos="5" duration="0"/>
   <stop edge="732059549#1" endPos="5" duration="0"/>
   <stop edge="322292822#2" endPos="5" duration="0"/>
   <stop edge="106664692#0" endPos="5" duration="0"/>
   <stop edge="144928692#2" endPos="5" duration="0"/>
   <stop edge="669017290#0" endPos="5" duration="0"/>
   <stop edge="671575271#0" endPos="5" duration="0"/>
   <stop edge="670083488#0" endPos="5" duration="0"/>
   <stop edge="-665275599" endPos="5" duration="0"/>
   <stop edge="-4854667#1" endPos="5" duration="0"/>
</trip>
<trip id="veh20" type="veh_passenger" depart="0" departLane="best" departSpeed="4.47" from="-E3" to="-4854667#1">
   <stop edge="-E1" endPos="5" duration="0"/>
   <stop edge="732059549#1" endPos="5" duration="0"/>
   <stop edge="322292822#2" endPos="5" duration="0"/>
   <stop edge="106664692#0" endPos="5" duration="0"/>
   <stop edge="144928692#2" endPos="5" duration="0"/>
   <stop edge="669017290#0" endPos="5" duration="0"/>
   <stop edge="671575271#0" endPos="5" duration="0"/>
   <stop edge="670083488#0" endPos="5" duration="0"/>
   <stop edge="-665275599" endPos="5" duration="0"/>
   <stop edge="-4854667#1" endPos="5" duration="0"/>
</trip>
<trip id="veh21" type="veh_passenger" depart="0" departLane="best" departSpeed="4.47" from="50304066#0" to="E3">
   <stop edge="-135256564#1" endPos="5" duration="0"/>
   <stop edge="-670083490#1" endPos="5" duration="0"/>
   <stop edge="669157819#0" endPos="5" duration="0"/>
   <stop edge="670084143#0" endPos="5" duration="0"/>
   <stop edge="420729272#0" endPos="5" duration="0"/>
   <stop edge="670754367#0" endPos="5" duration="0"/>
   <stop edge="732183921#0" endPos="5" duration="0"/>
   <stop edge="E1" endPos="5" duration="0"/>
   <stop edge="E3" endPos="5" duration="0"/>
</trip>
<trip id="veh22" type="veh_passenger" depart="0" departLane="best" departSpeed="4.47" from="50304066#0" to="E3">
   <stop edge="-135256564#1" endPos="5" duration="0"/>
   <stop edge="-670083490#1" endPos="5" duration="0"/>
   <stop edge="669157819#0" endPos="5" duration="0"/>
   <stop edge="670084143#0" endPos="5" duration="0"/>
   <stop edge="420729272#0" endPos="5" duration="0"/>
   <stop edge="670754367#0" endPos="5" duration="0"/>
   <stop edge="732183921#0" endPos="5" duration="0"/>
   <stop edge="E1" endPos="5" duration="0"/>
   <stop edge="E3" endPos="5" duration="0"/>
</trip>
<trip id="veh23" type="veh_passenger" depart="0" departLane="best" departSpeed="4.47" from="50304066#0" to="E3">
   <stop edge="-135256564#1" endPos="5" duration="0"/>
   <stop edge="-670083490#1" endPos="5" duration="0"/>
   <stop edge="669157819#0" endPos="5" duration="0"/>
   <stop edge="670084143#0" endPos="5" duration="0"/>
   <stop edge="420729272#0" endPos="5" duration="0"/>
   <stop edge="670754367#0" endPos="5" duration="0"/>
   <stop edge="732183921#0" endPos="5" duration="0"/>
   <stop edge="E1" endPos="5" duration="0"/>
   <stop edge="E3" endPos="5" duration="0"/>
</trip>
<trip id="veh24" type="veh_passenger" depart="0" departLane="best" departSpeed="4.47" from="50304066#0" to="E3">
   <stop edge="-135256564#1" endPos="5" duration="0"/>
   <stop edge="-670083490#1" endPos="5" duration="0"/>
   <stop edge="669157819#0" endPos="5" duration="0"/>
   <stop edge="670084143#0" endPos="5" duration="0"/>
   <stop edge="420729272#0" endPos="5" duration="0"/>
   <stop edge="670754367#0" endPos="5" duration="0"/>
   <stop edge="732183921#0" endPos="5" duration="0"/>
   <stop edge="E1" endPos="5" duration="0"/>
   <stop edge="E3" endPos="5" duration="0"/>
</trip>
<trip id="veh25" type="veh_passenger" depart="0" departLane="best" departSpeed="4.47" from="50304066#0" to="E3">
   <stop edge="-135256564#1" endPos="5" duration="0"/>
   <stop edge="-670083490#1" endPos="5" duration="0"/>
   <stop edge="669157819#0" endPos="5" duration="0"/>
   <stop edge="670084143#0" endPos="5" duration="0"/>
   <stop edge="420729272#0" endPos="5" duration="0"/>
   <stop edge="670754367#0" endPos="5" duration="0"/>
   <stop edge="732183921#0" endPos="5" duration="0"/>
   <stop edge="E1" endPos="5" duration="0"/>
   <stop edge="E3" endPos="5" duration="0"/>
</trip>
<trip id="veh26" type="veh_passenger" depart="0" departLane="best" departSpeed="4.47" from="-470279439#1" to="E3">
   <stop edge="-135256564#1" endPos="5" duration="0"/>
   <stop edge="-670083490#1" endPos="5" duration="0"/>
   <stop edge="669157819#0" endPos="5" duration="0"/>
   <stop edge="670084143#0" endPos="5" duration="0"/>
   <stop edge="420729272#0" endPos="5" duration="0"/>
   <stop edge="670754367#0" endPos="5" duration="0"/>
   <stop edge="732183921#0" endPos="5" duration="0"/>
   <stop edge="E1" endPos="5" duration="0"/>
   <stop edge="E3" endPos="5" duration="0"/>
</trip>
<trip id="veh27" type="veh_passenger" depart="0" departLane="best" departSpeed="4.47" from="-470279439#1" to="E3">
   <stop edge="-135256564#1" endPos="5" duration="0"/>
   <stop edge="-670083490#1" endPos="5" duration="0"/>
   <stop edge="669157819#0" endPos="5" duration="0"/>
   <stop edge="670084143#0" endPos="5" duration="0"/>
   <stop edge="420729272#0" endPos="5" duration="0"/>
   <stop edge="670754367#0" endPos="5" duration="0"/>
   <stop edge="732183921#0" endPos="5" duration="0"/>
   <stop edge="E1" endPos="5" duration="0"/>
   <stop edge="E3" endPos="5" duration="0"/>
</trip>
<trip id="veh28" type="veh_passenger" depart="0" departLane="best" departSpeed="4.47" from="-470279439#1" to="E3">
   <stop edge="-135256564#1" endPos="5" duration="0"/>
   <stop edge="-670083490#1" endPos="5" duration="0"/>
   <stop edge="669157819#0" endPos="5" duration="0"/>
   <stop edge="670084143#0" endPos="5" duration="0"/>
   <stop edge="420729272#0" endPos="5" duration="0"/>
   <stop edge="670754367#0" endPos="5" duration="0"/>
   <stop edge="732183921#0" endPos="5" duration="0"/>
   <stop edge="E1" endPos="5" duration="0"/>
   <stop edge="E3" endPos="5" duration="0"/>
</trip>
<trip id="veh29" type="veh_passenger" depart="0" departLane="best" departSpeed="4.47" from="-470279439#1" to="E3">
   <stop edge="-135256564#1" endPos="5" duration="0"/>
   <stop edge="-670083490#1" endPos="5" duration="0"/>
   <stop edge="669157819#0" endPos="5" duration="0"/>
   <stop edge="670084143#0" endPos="5" duration="0"/>
   <stop edge="420729272#0" endPos="5" duration="0"/>
   <stop edge="670754367#0" endPos="5" duration="0"/>
   <stop edge="732183921#0" endPos="5" duration="0"/>
   <stop edge="E1" endPos="5" duration="0"/>
   <stop edge="E3" endPos="5" duration="0"/>
</trip>
<trip id="veh30" type="veh_passenger" depart="0" departLane="best" departSpeed="4.47" from="-470279439#1" to="E3">
   <stop edge="-135256564#1" endPos="5" duration="0"/>
   <stop edge="-670083490#1" endPos="5" duration="0"/>
   <stop edge="669157819#0" endPos="5" duration="0"/>
   <stop edge="670084143#0" endPos="5" duration="0"/>
   <stop edge="420729272#0" endPos="5" duration="0"/>
   <stop edge="670754367#0" endPos="5" duration="0"/>
   <stop edge="732183921#0" endPos="5" duration="0"/>
   <stop edge="E1" endPos="5" duration="0"/>
   <stop edge="E3" endPos="5" duration="0"/>
</trip>
<trip id="veh31" type="veh_passenger" depart="0" departLane="best" departSpeed="4.47" from="-470279439#1" to="E3">
   <stop edge="-135256564#1" endPos="5" duration="0"/>
   <stop edge="-670083490#1" endPos="5" duration="0"/>
   <stop edge="669157819#0" endPos="5" duration="0"/>
   <stop edge="670084143#0" endPos="5" duration="0"/>
   <stop edge="420729272#0" endPos="5" duration="0"/>
   <stop edge="670754367#0" endPos="5" duration="0"/>
   <stop edge="732183921#0" endPos="5" duration="0"/>
   <stop edge="E1" endPos="5" duration="0"/>
   <stop edge="E3" endPos="5" duration="0"/>
</trip>
<trip id="veh32" type="veh_passenger" depart="0" departLane="best" departSpeed="4.47" from="-470279439#1" to="E3">
   <stop edge="-135256564#1" endPos="5" duration="0"/>
   <stop edge="-670083490#1" endPos="5" duration="0"/>
   <stop edge="669157819#0" endPos="5" duration="0"/>
   <stop edge="670084143#0" endPos="5" duration="0"/>
   <stop edge="420729272#0" endPos="5" duration="0"/>
   <stop edge="670754367#0" endPos="5" duration="0"/>
   <stop edge="732183921#0" endPos="5" duration="0"/>
   <stop edge="E1" endPos="5" duration="0"/>
   <stop edge="E3" endPos="5" duration="0"/>
</trip>
<trip id="veh33" type="veh_passenger" depart="0" departLane="best" departSpeed="4.47" from="-470279439#1" to="E3">
   <stop edge="-135256564#1" endPos="5" duration="0"/>
   <stop edge="-670083490#1" endPos="5" duration="0"/>
   <stop edge="669157819#0" endPos="5" duration="0"/>
   <stop edge="670084143#0" endPos="5" duration="0"/>
   <stop edge="420729272#0" endPos="5" duration="0"/>
   <stop edge="670754367#0" endPos="5" duration="0"/>
   <stop edge="732183921#0" endPos="5" duration="0"/>
   <stop edge="E1" endPos="5" duration="0"/>
   <stop edge="E3" endPos="5" duration="0"/>
</trip>
<trip id="veh34" type="veh_passenger" depart="0" departLane="best" departSpeed="4.47" from="-470279439#1" to="E3">
   <stop edge="-135256564#1" endPos="5" duration="0"/>
   <stop edge="-670083490#1" endPos="5" duration="0"/>
   <stop edge="669157819#0" endPos="5" duration="0"/>
   <stop edge="670084143#0" endPos="5" duration="0"/>
   <stop edge="420729272#0" endPos="5" duration="0"/>
   <stop edge="670754367#0" endPos="5" duration="0"/>
   <stop edge="732183921#0" endPos="5" duration="0"/>
   <stop edge="E1" endPos="5" duration="0"/>
   <stop edge="E3" endPos="5" duration="0"/>
</trip>
<trip id="veh35" type="veh_passenger" depart="0" departLane="best" departSpeed="4.47" from="-470279439#1" to="E3">
   <stop edge="-135256564#1" endPos="5" duration="0"/>
   <stop edge="-670083490#1" endPos="5" duration="0"/>
   <stop edge="669157819#0" endPos="5" duration="0"/>
   <stop edge="670084143#0" endPos="5" duration="0"/>
   <stop edge="420729272#0" endPos="5" duration="0"/>
   <stop edge="670754367#0" endPos="5" duration="0"/>
   <stop edge="732183921#0" endPos="5" duration="0"/>
   <stop edge="E1" endPos="5" duration="0"/>
   <stop edge="E3" endPos="5" duration="0"/>
</trip>
<trip id="veh36" type="veh_passenger" depart="0" departLane="best" departSpeed="4.47" from="-470279439#1" to="E3">
   <stop edge="-135256564#1" endPos="5" duration="0"/>
   <stop edge="-670083490#1" endPos="5" duration="0"/>
   <stop edge="669157819#0" endPos="5" duration="0"/>
   <stop edge="670084143#0" endPos="5" duration="0"/>
   <stop edge="420729272#0" endPos="5" duration="0"/>
   <stop edge="670754367#0" endPos="5" duration="0"/>
   <stop edge="732183921#0" endPos="5" duration="0"/>
   <stop edge="E1" endPos="5" duration="0"/>
   <stop edge="E3" endPos="5" duration="0"/>
</trip>
<trip id="veh37" type="veh_passenger" depart="0" departLane="best" departSpeed="4.47" from="-470279439#1" to="E3">
   <stop edge="-135256564#1" endPos="5" duration="0"/>
   <stop edge="-670083490#1" endPos="5" duration="0"/>
   <stop edge="669157819#0" endPos="5" duration="0"/>
   <stop edge="670084143#0" endPos="5" duration="0"/>
   <stop edge="420729272#0" endPos="5" duration="0"/>
   <stop edge="670754367#0" endPos="5" duration="0"/>
   <stop edge="732183921#0" endPos="5" duration="0"/>
   <stop edge="E1" endPos="5" duration="0"/>
   <stop edge="E3" endPos="5" duration="0"/>
</trip>
<trip id="veh38" type="veh_passenger" depart="0" departLane="best" departSpeed="4.47" from="-470279439#1" to="E3">
   <stop edge="-135256564#1" endPos="5" duration="0"/>
   <stop edge="-670083490#1" endPos="5" duration="0"/>
   <stop edge="669157819#0" endPos="5" duration="0"/>
   <stop edge="670084143#0" endPos="5" duration="0"/>
   <stop edge="420729272#0" endPos="5" duration="0"/>
   <stop edge="670754367#0" endPos="5" duration="0"/>
   <stop edge="732183921#0" endPos="5" duration="0"/>
   <stop edge="E1" endPos="5" duration="0"/>
   <stop edge="E3" endPos="5" duration="0"/>
</trip>
<trip id="veh39" type="veh_passenger" depart="0" departLane="best" departSpeed="4.47" from="-470279439#1" to="E3">
   <stop edge="-135256564#1" endPos="5" duration="0"/>
   <stop edge="-670083490#1" endPos="5" duration="0"/>
   <stop edge="669157819#0" endPos="5" duration="0"/>
   <stop edge="670084143#0" endPos="5" duration="0"/>
   <stop edge="420729272#0" endPos="5" duration="0"/>
   <stop edge="670754367#0" endPos="5" duration="0"/>
   <stop edge="732183921#0" endPos="5" duration="0"/>
   <stop edge="E1" endPos="5" duration="0"/>
   <stop edge="E3" endPos="5" duration="0"/>
</trip>
<trip id="veh40" type="veh_passenger" depart="0" departLane="best" departSpeed="4.47" from="-470279439#1" to="E3">
   <stop edge="-135256564#1" endPos="5" duration="0"/>
   <stop edge="-670083490#1" endPos="5" duration="0"/>
   <stop edge="669157819#0" endPos="5" duration="0"/>
   <stop edge="670084143#0" endPos="5" duration="0"/>
   <stop edge="420729272#0" endPos="5" duration="0"/>
   <stop edge="670754367#0" endPos="5" duration="0"/>
   <stop edge="732183921#0" endPos="5" duration="0"/>
   <stop edge="E1" endPos="5" duration="0"/>
   <stop edge="E3" endPos="5" duration="0"/>
</trip>
<trip id="veh41" type="veh_passenger" depart="0" departLane="best" departSpeed="4.47" from="-470279439#1" to="E3">
   <stop edge="-135256564#1" endPos="5" duration="0"/>
   <stop edge="-670083490#1" endPos="5" duration="0"/>
   <stop edge="669157819#0" endPos="5" duration="0"/>
   <stop edge="670084143#0" endPos="5" duration="0"/>
   <stop edge="420729272#0" endPos="5" duration="0"/>
   <stop edge="670754367#0" endPos="5" duration="0"/>
   <stop edge="732183921#0" endPos="5" duration="0"/>
   <stop edge="E1" endPos="5" duration="0"/>
   <stop edge="E3" endPos="5" duration="0"/>
</trip>
<trip id="veh42" type="veh_passenger" depart="0" departLane="best" departSpeed="4.47" from="-470279439#1" to="E3">
   <stop edge="-135256564#1" endPos="5" duration="0"/>
   <stop edge="-670083490#1" endPos="5" duration="0"/>
   <stop edge="669157819#0" endPos="5" duration="0"/>
   <stop edge="670084143#0" endPos="5" duration="0"/>
   <stop edge="420729272#0" endPos="5" duration="0"/>
   <stop edge="670754367#0" endPos="5" duration="0"/>
   <stop edge="732183921#0" endPos="5" duration="0"/>
   <stop edge="E1" endPos="5" duration="0"/>
   <stop edge="E3" endPos="5" duration="0"/>
</trip>
<trip id="veh43" type="veh_passenger" depart="0" departLane="best" departSpeed="4.47" from="-470279439#1" to="E3">
   <stop edge="-135256564#1" endPos="5" duration="0"/>
   <stop edge="-670083490#1" endPos="5" duration="0"/>
   <stop edge="669157819#0" endPos="5" duration="0"/>
   <stop edge="670084143#0" endPos="5" duration="0"/>
   <stop edge="420729272#0" endPos="5" duration="0"/>
   <stop edge="670754367#0" endPos="5" duration="0"/>
   <stop edge="732183921#0" endPos="5" duration="0"/>
   <stop edge="E1" endPos="5" duration="0"/>
   <stop edge="E3" endPos="5" duration="0"/>
</trip>
<trip id="veh44" type="veh_passenger" depart="0" departLane="best" departSpeed="4.47" from="-470279439#1" to="E3">
   <stop edge="-135256564#1" endPos="5" duration="0"/>
   <stop edge="-670083490#1" endPos="5" duration="0"/>
   <stop edge="669157819#0" endPos="5" duration="0"/>
   <stop edge="670084143#0" endPos="5" duration="0"/>
   <stop edge="420729272#0" endPos="5" duration="0"/>
   <stop edge="670754367#0" endPos="5" duration="0"/>
   <stop edge="732183921#0" endPos="5" duration="0"/>
   <stop edge="E1" endPos="5" duration="0"/>
   <stop edge="E3" endPos="5" duration="0"/>
</trip>